/*---------------------------------------------------------------------------*\
  =========                 |
  \\      /  F ield         | OpenFOAM: The Open Source CFD Toolbox
   \\    /   O peration     | Website:  https://openfoam.org
    \\  /    A nd           | Version:  10
     \\/     M anipulation  |
\*---------------------------------------------------------------------------*/
Build  : 10-c4cf895ad8fa
Exec   : interFoam
Date   : Apr 27 2023
Time   : 22:13:06
Host   : "yoshi-ThinkPad-T520"
PID    : 44813
I/O    : uncollated
Case   : /home/yoshi/OpenFOAM/yoshi-10/run/laminar/17k_seawalls/IW/damBreak
nProcs : 1
sigFpe : Enabling floating point exception trapping (FOAM_SIGFPE).
fileModificationChecking : Monitoring run-time modified files using timeStampMaster (fileModificationSkew 10)
allowSystemOperations : Allowing user-supplied system call operations

// * * * * * * * * * * * * * * * * * * * * * * * * * * * * * * * * * * * * * //
Create time

Create mesh for time = 0


PIMPLE: No convergence criteria found


PIMPLE: Operating solver in transient mode with 1 outer corrector
PIMPLE: Operating solver in PISO mode


Reading field p_rgh

Reading field U

Reading/calculating face flux field phi

Reading phaseProperties

Selecting viscosity model constant
Selecting viscosity model constant
No phase change: phaseChangeProperties not found
Selecting phaseChange model none

Reading g

Reading hRef
Calculating field g.h

Selecting turbulence model type laminar
Selecting laminar stress model Stokes
No MRF models present

No fvModels present
No fvConstraints present
DICPCG:  Solving for pcorr, Initial residual = 0, Final residual = 0, No Iterations 0
time step continuity errors : sum local = 0, global = 0, cumulative = 0
Courant Number mean: 0 max: 0

Starting time loop

Courant Number mean: 0 max: 0
Interface Courant Number mean: 0 max: 0
deltaT = 0.0111111
Time = 0.0111111s

smoothSolver:  Solving for alpha.water, Initial residual = 0, Final residual = 0, No Iterations 0
Phase-1 volume fraction = 0.0263898  Min(alpha.water) = 0  Max(alpha.water) = 1
MULES: Correcting alpha.water
MULES: Correcting alpha.water
Phase-1 volume fraction = 0.0263898  Min(alpha.water) = 0  Max(alpha.water) = 1
DICPCG:  Solving for p_rgh, Initial residual = 1, Final residual = 0.0455097, No Iterations 2
time step continuity errors : sum local = 0.0145311, global = -0.00146963, cumulative = -0.00146963
DICPCG:  Solving for p_rgh, Initial residual = 0.0259838, Final residual = 0.00120466, No Iterations 17
time step continuity errors : sum local = 0.000767855, global = -0.000144325, cumulative = -0.00161395
DICPCG:  Solving for p_rgh, Initial residual = 0.00244625, Final residual = 9.73364e-08, No Iterations 195
time step continuity errors : sum local = 6.59558e-08, global = 8.3727e-10, cumulative = -0.00161395
ExecutionTime = 0.205943 s  ClockTime = 0 s

Courant Number mean: 0.00515394 max: 1.09141
Interface Courant Number mean: 0 max: 0
deltaT = 0.00987654
Time = 0.0209877s

smoothSolver:  Solving for alpha.water, Initial residual = 0.00655321, Final residual = 4.59451e-09, No Iterations 5
Phase-1 volume fraction = 0.0263898  Min(alpha.water) = 0  Max(alpha.water) = 1
MULES: Correcting alpha.water
MULES: Correcting alpha.water
Phase-1 volume fraction = 0.0263898  Min(alpha.water) = -2.10684e-12  Max(alpha.water) = 1
DICPCG:  Solving for p_rgh, Initial residual = 0.0335801, Final residual = 0.00163123, No Iterations 2
time step continuity errors : sum local = 0.000469849, global = -5.73384e-07, cumulative = -0.00161452
DICPCG:  Solving for p_rgh, Initial residual = 0.00292161, Final residual = 0.000134377, No Iterations 45
time step continuity errors : sum local = 3.92835e-05, global = 4.77813e-06, cumulative = -0.00160975
DICPCG:  Solving for p_rgh, Initial residual = 0.00124411, Final residual = 9.37712e-08, No Iterations 172
time step continuity errors : sum local = 2.75693e-08, global = 3.2581e-10, cumulative = -0.00160975
ExecutionTime = 0.312467 s  ClockTime = 0 s

Courant Number mean: 0.00195568 max: 0.395857
Interface Courant Number mean: 0.000160087 max: 0.308517
deltaT = 0.0112875
Time = 0.0322751s

smoothSolver:  Solving for alpha.water, Initial residual = 0.000639817, Final residual = 3.82909e-11, No Iterations 3
Phase-1 volume fraction = 0.0263898  Min(alpha.water) = -2.0173e-12  Max(alpha.water) = 1
MULES: Correcting alpha.water
MULES: Correcting alpha.water
Phase-1 volume fraction = 0.0263898  Min(alpha.water) = -2.0173e-12  Max(alpha.water) = 1
DICPCG:  Solving for p_rgh, Initial residual = 0.00926831, Final residual = 0.000405363, No Iterations 5
time step continuity errors : sum local = 0.000148604, global = 3.60291e-09, cumulative = -0.00160974
DICPCG:  Solving for p_rgh, Initial residual = 0.000677375, Final residual = 3.368e-05, No Iterations 96
time step continuity errors : sum local = 1.2271e-05, global = 2.57671e-08, cumulative = -0.00160972
DICPCG:  Solving for p_rgh, Initial residual = 0.000182852, Final residual = 9.84671e-08, No Iterations 151
time step continuity errors : sum local = 3.58637e-08, global = -4.65344e-11, cumulative = -0.00160972
ExecutionTime = 0.429125 s  ClockTime = 0 s

Courant Number mean: 0.00254364 max: 0.374037
Interface Courant Number mean: 0.000177602 max: 0.305932
deltaT = 0.013545
Time = 0.0458201s

smoothSolver:  Solving for alpha.water, Initial residual = 0.000786833, Final residual = 1.29963e-10, No Iterations 3
Phase-1 volume fraction = 0.0263898  Min(alpha.water) = -1.91745e-12  Max(alpha.water) = 1
MULES: Correcting alpha.water
MULES: Correcting alpha.water
Phase-1 volume fraction = 0.0263898  Min(alpha.water) = -1.91745e-12  Max(alpha.water) = 1
DICPCG:  Solving for p_rgh, Initial residual = 0.0128543, Final residual = 0.000590309, No Iterations 2
time step continuity errors : sum local = 0.000298818, global = 2.23326e-09, cumulative = -0.00160971
DICPCG:  Solving for p_rgh, Initial residual = 0.000776079, Final residual = 3.46977e-05, No Iterations 13
time step continuity errors : sum local = 1.74719e-05, global = -1.69791e-09, cumulative = -0.00160972
DICPCG:  Solving for p_rgh, Initial residual = 6.02375e-05, Final residual = 9.69013e-08, No Iterations 151
time step continuity errors : sum local = 4.87409e-08, global = -4.1511e-09, cumulative = -0.00160972
ExecutionTime = 0.52391 s  ClockTime = 0 s

Courant Number mean: 0.00366188 max: 0.352469
Interface Courant Number mean: 0.000235417 max: 0.336045
deltaT = 0.013545
Time = 0.0593651s

smoothSolver:  Solving for alpha.water, Initial residual = 0.00087442, Final residual = 1.2165e-10, No Iterations 3
Phase-1 volume fraction = 0.0263898  Min(alpha.water) = -1.82094e-12  Max(alpha.water) = 1
MULES: Correcting alpha.water
MULES: Correcting alpha.water
Phase-1 volume fraction = 0.0263898  Min(alpha.water) = -1.82094e-12  Max(alpha.water) = 1
DICPCG:  Solving for p_rgh, Initial residual = 0.0147181, Final residual = 0.000729599, No Iterations 2
time step continuity errors : sum local = 0.000356851, global = -7.51143e-09, cumulative = -0.00160973
DICPCG:  Solving for p_rgh, Initial residual = 0.000922095, Final residual = 4.32228e-05, No Iterations 13
time step continuity errors : sum local = 2.10081e-05, global = -6.57155e-09, cumulative = -0.00160973
DICPCG:  Solving for p_rgh, Initial residual = 6.50356e-05, Final residual = 9.0434e-08, No Iterations 158
time step continuity errors : sum local = 4.39373e-08, global = -1.43313e-09, cumulative = -0.00160974
ExecutionTime = 0.620063 s  ClockTime = 0 s

Courant Number mean: 0.00434806 max: 0.324295
Interface Courant Number mean: 0.000248351 max: 0.324295
deltaT = 0.013545
Time = 0.0729101s

smoothSolver:  Solving for alpha.water, Initial residual = 0.00095368, Final residual = 9.83476e-11, No Iterations 3
Phase-1 volume fraction = 0.0263898  Min(alpha.water) = -1.72523e-12  Max(alpha.water) = 1
MULES: Correcting alpha.water
MULES: Correcting alpha.water
Phase-1 volume fraction = 0.0263898  Min(alpha.water) = -1.72523e-12  Max(alpha.water) = 1
DICPCG:  Solving for p_rgh, Initial residual = 0.0162483, Final residual = 0.000519396, No Iterations 3
time step continuity errors : sum local = 0.000245525, global = 1.84236e-09, cumulative = -0.00160973
DICPCG:  Solving for p_rgh, Initial residual = 0.000740374, Final residual = 3.4576e-05, No Iterations 17
time step continuity errors : sum local = 1.62015e-05, global = 2.81258e-09, cumulative = -0.00160973
DICPCG:  Solving for p_rgh, Initial residual = 5.20504e-05, Final residual = 8.97763e-08, No Iterations 155
time step continuity errors : sum local = 4.20557e-08, global = -3.57591e-10, cumulative = -0.00160973
ExecutionTime = 0.717926 s  ClockTime = 1 s

Courant Number mean: 0.00504911 max: 0.324063
Interface Courant Number mean: 0.00026422 max: 0.324063
deltaT = 0.013545
Time = 0.086455s

smoothSolver:  Solving for alpha.water, Initial residual = 0.00102166, Final residual = 6.23243e-10, No Iterations 3
Phase-1 volume fraction = 0.0263898  Min(alpha.water) = -1.63016e-12  Max(alpha.water) = 1
MULES: Correcting alpha.water
MULES: Correcting alpha.water
Phase-1 volume fraction = 0.0263898  Min(alpha.water) = -2.30388e-11  Max(alpha.water) = 1
DICPCG:  Solving for p_rgh, Initial residual = 0.0186558, Final residual = 0.000641803, No Iterations 3
time step continuity errors : sum local = 0.000294576, global = 1.04479e-09, cumulative = -0.00160973
DICPCG:  Solving for p_rgh, Initial residual = 0.000851269, Final residual = 4.13882e-05, No Iterations 18
time step continuity errors : sum local = 1.8785e-05, global = 8.81619e-10, cumulative = -0.00160973
DICPCG:  Solving for p_rgh, Initial residual = 6.27728e-05, Final residual = 8.89557e-08, No Iterations 156
time step continuity errors : sum local = 4.03639e-08, global = 5.27863e-10, cumulative = -0.00160973
ExecutionTime = 0.818778 s  ClockTime = 1 s

Courant Number mean: 0.00574923 max: 0.330902
Interface Courant Number mean: 0.000312766 max: 0.330902
deltaT = 0.013545
Time = 0.1s

smoothSolver:  Solving for alpha.water, Initial residual = 0.00111166, Final residual = 8.47171e-10, No Iterations 3
Phase-1 volume fraction = 0.0263898  Min(alpha.water) = -1.53623e-12  Max(alpha.water) = 1
MULES: Correcting alpha.water
MULES: Correcting alpha.water
Phase-1 volume fraction = 0.0263898  Min(alpha.water) = -1.19483e-10  Max(alpha.water) = 1
DICPCG:  Solving for p_rgh, Initial residual = 0.0223095, Final residual = 0.000775189, No Iterations 3
time step continuity errors : sum local = 0.000348726, global = 1.51105e-09, cumulative = -0.00160973
DICPCG:  Solving for p_rgh, Initial residual = 0.000995178, Final residual = 4.49631e-05, No Iterations 19
time step continuity errors : sum local = 1.99604e-05, global = 6.20289e-10, cumulative = -0.00160973
DICPCG:  Solving for p_rgh, Initial residual = 7.27784e-05, Final residual = 9.40347e-08, No Iterations 157
time step continuity errors : sum local = 4.17382e-08, global = 7.41615e-10, cumulative = -0.00160973
ExecutionTime = 1.00771 s  ClockTime = 1 s

Courant Number mean: 0.00646659 max: 0.340274
Interface Courant Number mean: 0.000333354 max: 0.340274
deltaT = 0.0142857
Time = 0.114286s

smoothSolver:  Solving for alpha.water, Initial residual = 0.00128272, Final residual = 1.62666e-09, No Iterations 3
Phase-1 volume fraction = 0.0263898  Min(alpha.water) = -1.43898e-12  Max(alpha.water) = 1
MULES: Correcting alpha.water
MULES: Correcting alpha.water
Phase-1 volume fraction = 0.0263898  Min(alpha.water) = -3.41226e-10  Max(alpha.water) = 1
DICPCG:  Solving for p_rgh, Initial residual = 0.0267211, Final residual = 0.000959021, No Iterations 3
time step continuity errors : sum local = 0.000488831, global = 1.14754e-09, cumulative = -0.00160972
DICPCG:  Solving for p_rgh, Initial residual = 0.00120238, Final residual = 5.48353e-05, No Iterations 19
time step continuity errors : sum local = 2.74808e-05, global = 2.93848e-10, cumulative = -0.00160972
DICPCG:  Solving for p_rgh, Initial residual = 9.2186e-05, Final residual = 9.69544e-08, No Iterations 160
time step continuity errors : sum local = 4.85736e-08, global = 1.18957e-09, cumulative = -0.00160972
ExecutionTime = 1.10916 s  ClockTime = 1 s

Courant Number mean: 0.00761326 max: 0.36672
Interface Courant Number mean: 0.0003733 max: 0.36672
deltaT = 0.0171429
Time = 0.131429s

smoothSolver:  Solving for alpha.water, Initial residual = 0.0016779, Final residual = 6.68127e-09, No Iterations 3
Phase-1 volume fraction = 0.0263898  Min(alpha.water) = -1.32615e-12  Max(alpha.water) = 1
MULES: Correcting alpha.water
MULES: Correcting alpha.water
Phase-1 volume fraction = 0.0263898  Min(alpha.water) = -1.26702e-09  Max(alpha.water) = 1
DICPCG:  Solving for p_rgh, Initial residual = 0.0358035, Final residual = 0.00134734, No Iterations 3
time step continuity errors : sum local = 0.000924657, global = 2.85654e-09, cumulative = -0.00160972
DICPCG:  Solving for p_rgh, Initial residual = 0.00166687, Final residual = 7.99297e-05, No Iterations 19
time step continuity errors : sum local = 5.34502e-05, global = 1.52821e-09, cumulative = -0.00160972
DICPCG:  Solving for p_rgh, Initial residual = 0.000139554, Final residual = 8.53975e-08, No Iterations 165
time step continuity errors : sum local = 5.70711e-08, global = 1.95967e-09, cumulative = -0.00160972
ExecutionTime = 1.21816 s  ClockTime = 1 s

Courant Number mean: 0.0102967 max: 0.44481
Interface Courant Number mean: 0.000520466 max: 0.44481
deltaT = 0.0171429
Time = 0.148571s

smoothSolver:  Solving for alpha.water, Initial residual = 0.00182404, Final residual = 9.08463e-11, No Iterations 4
Phase-1 volume fraction = 0.0263898  Min(alpha.water) = -1.21677e-12  Max(alpha.water) = 1
MULES: Correcting alpha.water
MULES: Correcting alpha.water
Phase-1 volume fraction = 0.0263898  Min(alpha.water) = -2.20549e-09  Max(alpha.water) = 1
DICPCG:  Solving for p_rgh, Initial residual = 0.0406647, Final residual = 0.00160447, No Iterations 3
time step continuity errors : sum local = 0.00102003, global = 3.27702e-09, cumulative = -0.00160971
DICPCG:  Solving for p_rgh, Initial residual = 0.00192335, Final residual = 9.06423e-05, No Iterations 20
time step continuity errors : sum local = 5.58195e-05, global = 1.44989e-09, cumulative = -0.00160971
DICPCG:  Solving for p_rgh, Initial residual = 0.00016917, Final residual = 9.81821e-08, No Iterations 165
time step continuity errors : sum local = 6.04369e-08, global = 2.72048e-09, cumulative = -0.00160971
ExecutionTime = 1.32143 s  ClockTime = 1 s

Courant Number mean: 0.0114897 max: 0.452411
Interface Courant Number mean: 0.000527022 max: 0.445779
deltaT = 0.0171429
Time = 0.165714s

smoothSolver:  Solving for alpha.water, Initial residual = 0.0019541, Final residual = 1.79789e-10, No Iterations 4
Phase-1 volume fraction = 0.0263898  Min(alpha.water) = -1.11125e-12  Max(alpha.water) = 1
MULES: Correcting alpha.water
MULES: Correcting alpha.water
Phase-1 volume fraction = 0.0263898  Min(alpha.water) = -2.04564e-09  Max(alpha.water) = 1
DICPCG:  Solving for p_rgh, Initial residual = 0.0458004, Final residual = 0.00186, No Iterations 3
time step continuity errors : sum local = 0.0010866, global = 4.16609e-09, cumulative = -0.00160971
DICPCG:  Solving for p_rgh, Initial residual = 0.00218136, Final residual = 0.00010426, No Iterations 20
time step continuity errors : sum local = 5.86742e-05, global = 8.0419e-10, cumulative = -0.0016097
DICPCG:  Solving for p_rgh, Initial residual = 0.000198884, Final residual = 9.70174e-08, No Iterations 167
time step continuity errors : sum local = 5.45881e-08, global = 3.0128e-09, cumulative = -0.0016097
ExecutionTime = 1.42571 s  ClockTime = 1 s

Courant Number mean: 0.0127165 max: 0.466359
Interface Courant Number mean: 0.000606292 max: 0.445524
deltaT = 0.0171429
Time = 0.182857s

smoothSolver:  Solving for alpha.water, Initial residual = 0.0020426, Final residual = 3.45619e-10, No Iterations 4
Phase-1 volume fraction = 0.0263898  Min(alpha.water) = -1.00998e-12  Max(alpha.water) = 1
MULES: Correcting alpha.water
MULES: Correcting alpha.water
Phase-1 volume fraction = 0.0263898  Min(alpha.water) = -4.29434e-09  Max(alpha.water) = 1
DICPCG:  Solving for p_rgh, Initial residual = 0.0521122, Final residual = 0.00210478, No Iterations 3
time step continuity errors : sum local = 0.00111965, global = 4.31288e-09, cumulative = -0.0016097
DICPCG:  Solving for p_rgh, Initial residual = 0.00246856, Final residual = 0.000118337, No Iterations 20
time step continuity errors : sum local = 6.03174e-05, global = 8.48001e-10, cumulative = -0.0016097
DICPCG:  Solving for p_rgh, Initial residual = 0.000231744, Final residual = 9.8491e-08, No Iterations 169
time step continuity errors : sum local = 5.02018e-08, global = 3.15104e-09, cumulative = -0.00160969
ExecutionTime = 1.52946 s  ClockTime = 1 s

Courant Number mean: 0.0139281 max: 0.479034
Interface Courant Number mean: 0.000716311 max: 0.455802
deltaT = 0.0171429
Time = 0.2s

smoothSolver:  Solving for alpha.water, Initial residual = 0.00217215, Final residual = 5.47654e-10, No Iterations 4
Phase-1 volume fraction = 0.0263898  Min(alpha.water) = -9.11814e-13  Max(alpha.water) = 1
MULES: Correcting alpha.water
MULES: Correcting alpha.water
Phase-1 volume fraction = 0.0263898  Min(alpha.water) = -9.11814e-13  Max(alpha.water) = 1
DICPCG:  Solving for p_rgh, Initial residual = 0.0586378, Final residual = 0.00234051, No Iterations 3
time step continuity errors : sum local = 0.00112441, global = 4.10412e-09, cumulative = -0.00160969
DICPCG:  Solving for p_rgh, Initial residual = 0.00278377, Final residual = 0.00013372, No Iterations 20
time step continuity errors : sum local = 6.12147e-05, global = 1.01239e-09, cumulative = -0.00160969
DICPCG:  Solving for p_rgh, Initial residual = 0.000270877, Final residual = 9.11035e-08, No Iterations 170
time step continuity errors : sum local = 4.16973e-08, global = 2.60148e-09, cumulative = -0.00160969
ExecutionTime = 1.72008 s  ClockTime = 2 s

Courant Number mean: 0.0151443 max: 0.488818
Interface Courant Number mean: 0.00076956 max: 0.488818
deltaT = 0.02
Time = 0.22s

smoothSolver:  Solving for alpha.water, Initial residual = 0.00272777, Final residual = 2.52342e-09, No Iterations 4
Phase-1 volume fraction = 0.0263898  Min(alpha.water) = -8.01647e-13  Max(alpha.water) = 1
MULES: Correcting alpha.water
MULES: Correcting alpha.water
Phase-1 volume fraction = 0.0263898  Min(alpha.water) = -2.35702e-06  Max(alpha.water) = 1
DICPCG:  Solving for p_rgh, Initial residual = 0.0727047, Final residual = 0.00293245, No Iterations 3
time step continuity errors : sum local = 0.0016682, global = 4.19639e-09, cumulative = -0.00160968
DICPCG:  Solving for p_rgh, Initial residual = 0.00358038, Final residual = 0.000171764, No Iterations 20
time step continuity errors : sum local = 9.16315e-05, global = 2.72743e-10, cumulative = -0.00160968
DICPCG:  Solving for p_rgh, Initial residual = 0.000390453, Final residual = 9.09007e-08, No Iterations 177
time step continuity errors : sum local = 4.84716e-08, global = 2.19685e-09, cumulative = -0.00160968
ExecutionTime = 1.83173 s  ClockTime = 2 s

Courant Number mean: 0.0192878 max: 0.62789
Interface Courant Number mean: 0.00109741 max: 0.62789
deltaT = 0.02
Time = 0.24s

smoothSolver:  Solving for alpha.water, Initial residual = 0.00301052, Final residual = 5.8981e-09, No Iterations 4
Phase-1 volume fraction = 0.0263898  Min(alpha.water) = -6.95192e-13  Max(alpha.water) = 1
MULES: Correcting alpha.water
MULES: Correcting alpha.water
Phase-1 volume fraction = 0.0263898  Min(alpha.water) = -6.95192e-13  Max(alpha.water) = 1
DICPCG:  Solving for p_rgh, Initial residual = 0.0773449, Final residual = 0.0031205, No Iterations 3
time step continuity errors : sum local = 0.00154551, global = 3.93322e-09, cumulative = -0.00160967
DICPCG:  Solving for p_rgh, Initial residual = 0.00393297, Final residual = 0.000184139, No Iterations 20
time step continuity errors : sum local = 8.49804e-05, global = 5.23363e-11, cumulative = -0.00160967
DICPCG:  Solving for p_rgh, Initial residual = 0.000445179, Final residual = 9.73957e-08, No Iterations 177
time step continuity errors : sum local = 4.49734e-08, global = 1.89196e-09, cumulative = -0.00160967
ExecutionTime = 1.94363 s  ClockTime = 2 s

Courant Number mean: 0.0209123 max: 0.677122
Interface Courant Number mean: 0.00117778 max: 0.677122
deltaT = 0.02
Time = 0.26s

smoothSolver:  Solving for alpha.water, Initial residual = 0.00328496, Final residual = 5.02829e-10, No Iterations 5
Phase-1 volume fraction = 0.0263898  Min(alpha.water) = -5.93602e-13  Max(alpha.water) = 1
MULES: Correcting alpha.water
MULES: Correcting alpha.water
Phase-1 volume fraction = 0.0263898  Min(alpha.water) = -1.55277e-08  Max(alpha.water) = 1
DICPCG:  Solving for p_rgh, Initial residual = 0.0834581, Final residual = 0.00321876, No Iterations 3
time step continuity errors : sum local = 0.00130705, global = 4.03551e-09, cumulative = -0.00160967
DICPCG:  Solving for p_rgh, Initial residual = 0.00423347, Final residual = 0.000210575, No Iterations 19
time step continuity errors : sum local = 7.92694e-05, global = 7.58406e-10, cumulative = -0.00160967
DICPCG:  Solving for p_rgh, Initial residual = 0.000497761, Final residual = 9.74111e-08, No Iterations 180
time step continuity errors : sum local = 3.67377e-08, global = 2.76734e-09, cumulative = -0.00160967
ExecutionTime = 2.05343 s  ClockTime = 2 s

Courant Number mean: 0.0224785 max: 0.781503
Interface Courant Number mean: 0.00120436 max: 0.702712
deltaT = 0.02
Time = 0.28s

smoothSolver:  Solving for alpha.water, Initial residual = 0.00356919, Final residual = 1.61166e-09, No Iterations 5
Phase-1 volume fraction = 0.0263898  Min(alpha.water) = -5.02094e-13  Max(alpha.water) = 1
MULES: Correcting alpha.water
MULES: Correcting alpha.water
Phase-1 volume fraction = 0.0263898  Min(alpha.water) = -1.30047e-08  Max(alpha.water) = 1
DICPCG:  Solving for p_rgh, Initial residual = 0.0723692, Final residual = 0.00310509, No Iterations 2
time step continuity errors : sum local = 0.00129013, global = 4.81315e-09, cumulative = -0.00160966
DICPCG:  Solving for p_rgh, Initial residual = 0.00403769, Final residual = 0.000181611, No Iterations 18
time step continuity errors : sum local = 7.13349e-05, global = 1.78794e-09, cumulative = -0.00160966
DICPCG:  Solving for p_rgh, Initial residual = 0.00054757, Final residual = 9.50617e-08, No Iterations 174
time step continuity errors : sum local = 3.74642e-08, global = -3.34045e-09, cumulative = -0.00160966
ExecutionTime = 2.16437 s  ClockTime = 2 s

Courant Number mean: 0.0244088 max: 0.844092
Interface Courant Number mean: 0.00136248 max: 0.843548
deltaT = 0.02
Time = 0.3s

smoothSolver:  Solving for alpha.water, Initial residual = 0.00384937, Final residual = 3.42498e-09, No Iterations 5
Phase-1 volume fraction = 0.0263898  Min(alpha.water) = -4.01267e-13  Max(alpha.water) = 1
MULES: Correcting alpha.water
MULES: Correcting alpha.water
Phase-1 volume fraction = 0.0263898  Min(alpha.water) = -1.78768e-07  Max(alpha.water) = 1
DICPCG:  Solving for p_rgh, Initial residual = 0.0830003, Final residual = 0.00354753, No Iterations 3
time step continuity errors : sum local = 0.00200534, global = -4.28244e-09, cumulative = -0.00160967
DICPCG:  Solving for p_rgh, Initial residual = 0.00458195, Final residual = 0.000212095, No Iterations 21
time step continuity errors : sum local = 0.000111125, global = -5.89423e-09, cumulative = -0.00160967
DICPCG:  Solving for p_rgh, Initial residual = 0.000627701, Final residual = 9.59803e-08, No Iterations 180
time step continuity errors : sum local = 5.03382e-08, global = -1.94753e-11, cumulative = -0.00160967
ExecutionTime = 2.3624 s  ClockTime = 2 s

Courant Number mean: 0.0255583 max: 0.943953
Interface Courant Number mean: 0.00162864 max: 0.943953
deltaT = 0.02
Time = 0.32s

smoothSolver:  Solving for alpha.water, Initial residual = 0.00385154, Final residual = 8.88359e-09, No Iterations 5
Phase-1 volume fraction = 0.0263898  Min(alpha.water) = -1.56147e-07  Max(alpha.water) = 1
MULES: Correcting alpha.water
MULES: Correcting alpha.water
Phase-1 volume fraction = 0.0263898  Min(alpha.water) = -1.56147e-07  Max(alpha.water) = 1
DICPCG:  Solving for p_rgh, Initial residual = 0.100126, Final residual = 0.0037841, No Iterations 3
time step continuity errors : sum local = 0.00205339, global = 1.74571e-09, cumulative = -0.00160967
DICPCG:  Solving for p_rgh, Initial residual = 0.00492138, Final residual = 0.000238233, No Iterations 24
time step continuity errors : sum local = 0.000117769, global = -1.67126e-08, cumulative = -0.00160969
DICPCG:  Solving for p_rgh, Initial residual = 0.000692277, Final residual = 9.94292e-08, No Iterations 175
time step continuity errors : sum local = 4.9198e-08, global = 9.56e-10, cumulative = -0.00160969
ExecutionTime = 2.4774 s  ClockTime = 2 s

Courant Number mean: 0.0272201 max: 1.03676
Interface Courant Number mean: 0.00168631 max: 1.03641
deltaT = 0.016
Time = 0.336s

smoothSolver:  Solving for alpha.water, Initial residual = 0.00331841, Final residual = 4.90407e-09, No Iterations 5
Phase-1 volume fraction = 0.0263898  Min(alpha.water) = -1.37577e-07  Max(alpha.water) = 1
MULES: Correcting alpha.water
MULES: Correcting alpha.water
Phase-1 volume fraction = 0.0263898  Min(alpha.water) = -1.37577e-07  Max(alpha.water) = 1
DICPCG:  Solving for p_rgh, Initial residual = 0.0890037, Final residual = 0.00331663, No Iterations 3
time step continuity errors : sum local = 0.000985576, global = 4.00838e-09, cumulative = -0.00160968
DICPCG:  Solving for p_rgh, Initial residual = 0.00426329, Final residual = 0.000205115, No Iterations 22
time step continuity errors : sum local = 5.62066e-05, global = -1.30566e-08, cumulative = -0.0016097
DICPCG:  Solving for p_rgh, Initial residual = 0.000555872, Final residual = 9.93203e-08, No Iterations 182
time step continuity errors : sum local = 2.72588e-08, global = 1.76267e-09, cumulative = -0.00160969
ExecutionTime = 2.59495 s  ClockTime = 2 s

Courant Number mean: 0.0228234 max: 0.88182
Interface Courant Number mean: 0.00143468 max: 0.88182
deltaT = 0.016
Time = 0.352s

smoothSolver:  Solving for alpha.water, Initial residual = 0.00351065, Final residual = 8.1888e-09, No Iterations 5
Phase-1 volume fraction = 0.0263898  Min(alpha.water) = -1.18232e-07  Max(alpha.water) = 1
MULES: Correcting alpha.water
MULES: Correcting alpha.water
Phase-1 volume fraction = 0.0263898  Min(alpha.water) = -1.18232e-07  Max(alpha.water) = 1
DICPCG:  Solving for p_rgh, Initial residual = 0.0915269, Final residual = 0.00338932, No Iterations 3
time step continuity errors : sum local = 0.000844447, global = 3.72973e-09, cumulative = -0.00160969
DICPCG:  Solving for p_rgh, Initial residual = 0.00436748, Final residual = 0.000214055, No Iterations 22
time step continuity errors : sum local = 4.90669e-05, global = -5.41216e-09, cumulative = -0.0016097
DICPCG:  Solving for p_rgh, Initial residual = 0.000589106, Final residual = 9.89833e-08, No Iterations 179
time step continuity errors : sum local = 2.27475e-08, global = 1.344e-09, cumulative = -0.00160969
ExecutionTime = 2.70789 s  ClockTime = 3 s

Courant Number mean: 0.0238845 max: 0.974049
Interface Courant Number mean: 0.00153721 max: 0.974049
deltaT = 0.016
Time = 0.368s

smoothSolver:  Solving for alpha.water, Initial residual = 0.00367403, Final residual = 8.9147e-10, No Iterations 6
Phase-1 volume fraction = 0.0263898  Min(alpha.water) = -9.97855e-08  Max(alpha.water) = 1
MULES: Correcting alpha.water
MULES: Correcting alpha.water
Phase-1 volume fraction = 0.0263898  Min(alpha.water) = -9.97855e-08  Max(alpha.water) = 1
DICPCG:  Solving for p_rgh, Initial residual = 0.0832353, Final residual = 0.0027063, No Iterations 3
time step continuity errors : sum local = 0.000582206, global = 2.55878e-09, cumulative = -0.00160969
DICPCG:  Solving for p_rgh, Initial residual = 0.00361727, Final residual = 0.000165969, No Iterations 22
time step continuity errors : sum local = 3.33031e-05, global = -4.79466e-09, cumulative = -0.0016097
DICPCG:  Solving for p_rgh, Initial residual = 0.000508865, Final residual = 9.40712e-08, No Iterations 178
time step continuity errors : sum local = 1.8969e-08, global = 7.10908e-10, cumulative = -0.0016097
ExecutionTime = 2.8219 s  ClockTime = 3 s

Courant Number mean: 0.0249606 max: 1.01926
Interface Courant Number mean: 0.00161176 max: 1.01924
deltaT = 0.0106667
Time = 0.378667s

smoothSolver:  Solving for alpha.water, Initial residual = 0.00257943, Final residual = 1.76079e-09, No Iterations 5
Phase-1 volume fraction = 0.0263898  Min(alpha.water) = -8.85717e-08  Max(alpha.water) = 1
MULES: Correcting alpha.water
MULES: Correcting alpha.water
Phase-1 volume fraction = 0.0263898  Min(alpha.water) = -8.85717e-08  Max(alpha.water) = 1
DICPCG:  Solving for p_rgh, Initial residual = 0.046858, Final residual = 0.0019373, No Iterations 3
time step continuity errors : sum local = 0.000215252, global = 6.83027e-10, cumulative = -0.00160969
DICPCG:  Solving for p_rgh, Initial residual = 0.00241435, Final residual = 0.000111093, No Iterations 20
time step continuity errors : sum local = 1.19576e-05, global = -4.87834e-10, cumulative = -0.0016097
DICPCG:  Solving for p_rgh, Initial residual = 0.000301498, Final residual = 9.70663e-08, No Iterations 173
time step continuity errors : sum local = 1.04922e-08, global = 1.62828e-11, cumulative = -0.0016097
ExecutionTime = 2.93705 s  ClockTime = 3 s

Courant Number mean: 0.0170481 max: 0.7337
Interface Courant Number mean: 0.00111535 max: 0.733663
deltaT = 0.0106667
Time = 0.389333s

smoothSolver:  Solving for alpha.water, Initial residual = 0.002619, Final residual = 2.59001e-09, No Iterations 5
Phase-1 volume fraction = 0.0263898  Min(alpha.water) = -7.8455e-08  Max(alpha.water) = 1
MULES: Correcting alpha.water
MULES: Correcting alpha.water
Phase-1 volume fraction = 0.0263898  Min(alpha.water) = -7.84083e-08  Max(alpha.water) = 1
DICPCG:  Solving for p_rgh, Initial residual = 0.0626081, Final residual = 0.00278475, No Iterations 3
time step continuity errors : sum local = 0.000446737, global = -3.84014e-10, cumulative = -0.0016097
DICPCG:  Solving for p_rgh, Initial residual = 0.00327339, Final residual = 0.000157905, No Iterations 25
time step continuity errors : sum local = 2.39662e-05, global = -1.24142e-09, cumulative = -0.0016097
DICPCG:  Solving for p_rgh, Initial residual = 0.000406751, Final residual = 8.82066e-08, No Iterations 170
time step continuity errors : sum local = 1.34024e-08, global = 4.03532e-10, cumulative = -0.0016097
ExecutionTime = 3.05354 s  ClockTime = 3 s

Courant Number mean: 0.0175501 max: 0.771799
Interface Courant Number mean: 0.00119618 max: 0.771785
deltaT = 0.0106667
Time = 0.4s

smoothSolver:  Solving for alpha.water, Initial residual = 0.00264978, Final residual = 3.94915e-09, No Iterations 5
Phase-1 volume fraction = 0.0263898  Min(alpha.water) = -6.91659e-08  Max(alpha.water) = 1
MULES: Correcting alpha.water
MULES: Correcting alpha.water
Phase-1 volume fraction = 0.0263898  Min(alpha.water) = -6.91659e-08  Max(alpha.water) = 1
DICPCG:  Solving for p_rgh, Initial residual = 0.0676589, Final residual = 0.00234236, No Iterations 4
time step continuity errors : sum local = 0.00035067, global = 1.48197e-09, cumulative = -0.00160969
DICPCG:  Solving for p_rgh, Initial residual = 0.00287249, Final residual = 0.000131614, No Iterations 27
time step continuity errors : sum local = 1.85582e-05, global = -4.28555e-09, cumulative = -0.0016097
DICPCG:  Solving for p_rgh, Initial residual = 0.000358808, Final residual = 9.47966e-08, No Iterations 177
time step continuity errors : sum local = 1.33782e-08, global = -2.36952e-10, cumulative = -0.0016097
ExecutionTime = 3.26221 s  ClockTime = 3 s

Courant Number mean: 0.017959 max: 0.789963
Interface Courant Number mean: 0.0012016 max: 0.789963
deltaT = 0.0111111
Time = 0.411111s

smoothSolver:  Solving for alpha.water, Initial residual = 0.00279454, Final residual = 7.54312e-09, No Iterations 5
Phase-1 volume fraction = 0.0263898  Min(alpha.water) = -6.06939e-08  Max(alpha.water) = 1
MULES: Correcting alpha.water
MULES: Correcting alpha.water
Phase-1 volume fraction = 0.0263898  Min(alpha.water) = -6.06487e-08  Max(alpha.water) = 1
DICPCG:  Solving for p_rgh, Initial residual = 0.0737591, Final residual = 0.00254629, No Iterations 4
time step continuity errors : sum local = 0.000369222, global = -4.64575e-10, cumulative = -0.0016097
DICPCG:  Solving for p_rgh, Initial residual = 0.0031618, Final residual = 0.000142513, No Iterations 30
time step continuity errors : sum local = 1.93491e-05, global = -7.29154e-09, cumulative = -0.00160971
DICPCG:  Solving for p_rgh, Initial residual = 0.000403503, Final residual = 9.15828e-08, No Iterations 169
time step continuity errors : sum local = 1.24435e-08, global = 8.86064e-10, cumulative = -0.00160971
ExecutionTime = 3.38192 s  ClockTime = 3 s

Courant Number mean: 0.0192605 max: 0.882264
Interface Courant Number mean: 0.00131646 max: 0.882212
deltaT = 0.0111111
Time = 0.422222s

smoothSolver:  Solving for alpha.water, Initial residual = 0.00287689, Final residual = 7.88734e-10, No Iterations 6
Phase-1 volume fraction = 0.0263898  Min(alpha.water) = -5.30026e-08  Max(alpha.water) = 1
MULES: Correcting alpha.water
MULES: Correcting alpha.water
Phase-1 volume fraction = 0.0263898  Min(alpha.water) = -5.30026e-08  Max(alpha.water) = 1
DICPCG:  Solving for p_rgh, Initial residual = 0.0754194, Final residual = 0.00264326, No Iterations 4
time step continuity errors : sum local = 0.000332022, global = 2.68839e-09, cumulative = -0.0016097
DICPCG:  Solving for p_rgh, Initial residual = 0.00329741, Final residual = 0.000150336, No Iterations 27
time step continuity errors : sum local = 1.76836e-05, global = -5.27874e-09, cumulative = -0.00160971
DICPCG:  Solving for p_rgh, Initial residual = 0.000435377, Final residual = 9.86099e-08, No Iterations 178
time step continuity errors : sum local = 1.16132e-08, global = -1.6264e-10, cumulative = -0.00160971
ExecutionTime = 3.49791 s  ClockTime = 3 s

Courant Number mean: 0.0197522 max: 0.962547
Interface Courant Number mean: 0.00138191 max: 0.962547
deltaT = 0.0111111
Time = 0.433333s

smoothSolver:  Solving for alpha.water, Initial residual = 0.00295131, Final residual = 1.36384e-09, No Iterations 6
Phase-1 volume fraction = 0.0263898  Min(alpha.water) = -4.63441e-08  Max(alpha.water) = 1
MULES: Correcting alpha.water
MULES: Correcting alpha.water
Phase-1 volume fraction = 0.0263898  Min(alpha.water) = -4.63441e-08  Max(alpha.water) = 1
DICPCG:  Solving for p_rgh, Initial residual = 0.0720766, Final residual = 0.00259109, No Iterations 4
time step continuity errors : sum local = 0.000293282, global = -5.83477e-10, cumulative = -0.00160971
DICPCG:  Solving for p_rgh, Initial residual = 0.00330539, Final residual = 0.000159695, No Iterations 28
time step continuity errors : sum local = 1.70202e-05, global = -6.36643e-09, cumulative = -0.00160972
DICPCG:  Solving for p_rgh, Initial residual = 0.000474153, Final residual = 9.86584e-08, No Iterations 171
time step continuity errors : sum local = 1.05328e-08, global = 6.95824e-10, cumulative = -0.00160972
ExecutionTime = 3.61152 s  ClockTime = 3 s

Courant Number mean: 0.0203217 max: 1.0236
Interface Courant Number mean: 0.00136563 max: 1.0236
deltaT = 0.00952381
Time = 0.442857s

smoothSolver:  Solving for alpha.water, Initial residual = 0.00260239, Final residual = 8.12985e-09, No Iterations 5
Phase-1 volume fraction = 0.0263898  Min(alpha.water) = -4.11903e-08  Max(alpha.water) = 1
MULES: Correcting alpha.water
MULES: Correcting alpha.water
Phase-1 volume fraction = 0.0263898  Min(alpha.water) = -4.11903e-08  Max(alpha.water) = 1
DICPCG:  Solving for p_rgh, Initial residual = 0.0599753, Final residual = 0.0019843, No Iterations 4
time step continuity errors : sum local = 0.000167897, global = 1.60367e-09, cumulative = -0.00160971
DICPCG:  Solving for p_rgh, Initial residual = 0.00257367, Final residual = 0.000124711, No Iterations 27
time step continuity errors : sum local = 1.0068e-05, global = -3.3451e-09, cumulative = -0.00160972
DICPCG:  Solving for p_rgh, Initial residual = 0.000367152, Final residual = 9.76215e-08, No Iterations 176
time step continuity errors : sum local = 7.8976e-09, global = -1.19241e-10, cumulative = -0.00160972
ExecutionTime = 3.72762 s  ClockTime = 4 s

Courant Number mean: 0.0178266 max: 0.935096
Interface Courant Number mean: 0.00120377 max: 0.935043
deltaT = 0.00952381
Time = 0.452381s

smoothSolver:  Solving for alpha.water, Initial residual = 0.00266096, Final residual = 1.04881e-09, No Iterations 6
Phase-1 volume fraction = 0.0263898  Min(alpha.water) = -3.66696e-08  Max(alpha.water) = 1
MULES: Correcting alpha.water
MULES: Correcting alpha.water
Phase-1 volume fraction = 0.0263898  Min(alpha.water) = -3.66696e-08  Max(alpha.water) = 1
DICPCG:  Solving for p_rgh, Initial residual = 0.0555894, Final residual = 0.00253239, No Iterations 3
time step continuity errors : sum local = 0.000248199, global = -4.65046e-10, cumulative = -0.00160972
DICPCG:  Solving for p_rgh, Initial residual = 0.00309565, Final residual = 0.000148565, No Iterations 22
time step continuity errors : sum local = 1.39647e-05, global = -2.09166e-09, cumulative = -0.00160972
DICPCG:  Solving for p_rgh, Initial residual = 0.000474147, Final residual = 9.40763e-08, No Iterations 171
time step continuity errors : sum local = 8.85433e-09, global = 4.86147e-10, cumulative = -0.00160972
ExecutionTime = 3.84856 s  ClockTime = 4 s

Courant Number mean: 0.0182644 max: 1.01652
Interface Courant Number mean: 0.00125618 max: 1.01652
deltaT = 0.00793651
Time = 0.460317s

smoothSolver:  Solving for alpha.water, Initial residual = 0.00225295, Final residual = 4.27213e-09, No Iterations 5
Phase-1 volume fraction = 0.0263898  Min(alpha.water) = -3.32858e-08  Max(alpha.water) = 1
MULES: Correcting alpha.water
MULES: Correcting alpha.water
Phase-1 volume fraction = 0.0263898  Min(alpha.water) = -3.32858e-08  Max(alpha.water) = 1
DICPCG:  Solving for p_rgh, Initial residual = 0.0581975, Final residual = 0.00224857, No Iterations 3
time step continuity errors : sum local = 0.000201614, global = 1.05678e-09, cumulative = -0.00160972
DICPCG:  Solving for p_rgh, Initial residual = 0.00276234, Final residual = 0.000121846, No Iterations 25
time step continuity errors : sum local = 1.03961e-05, global = -9.33785e-10, cumulative = -0.00160972
DICPCG:  Solving for p_rgh, Initial residual = 0.000359561, Final residual = 9.09194e-08, No Iterations 170
time step continuity errors : sum local = 7.76193e-09, global = 5.84379e-10, cumulative = -0.00160972
ExecutionTime = 3.96254 s  ClockTime = 4 s

Courant Number mean: 0.0155151 max: 0.915541
Interface Courant Number mean: 0.00110432 max: 0.915541
deltaT = 0.00793651
Time = 0.468254s

smoothSolver:  Solving for alpha.water, Initial residual = 0.00227835, Final residual = 5.19379e-09, No Iterations 5
Phase-1 volume fraction = 0.0263898  Min(alpha.water) = -3.02737e-08  Max(alpha.water) = 1
MULES: Correcting alpha.water
MULES: Correcting alpha.water
Phase-1 volume fraction = 0.0263898  Min(alpha.water) = -3.02737e-08  Max(alpha.water) = 1
DICPCG:  Solving for p_rgh, Initial residual = 0.0565537, Final residual = 0.00202604, No Iterations 3
time step continuity errors : sum local = 0.000175251, global = 9.65406e-10, cumulative = -0.00160972
DICPCG:  Solving for p_rgh, Initial residual = 0.00255994, Final residual = 0.000119974, No Iterations 25
time step continuity errors : sum local = 9.87363e-06, global = -1.20813e-09, cumulative = -0.00160972
DICPCG:  Solving for p_rgh, Initial residual = 0.000359701, Final residual = 9.76378e-08, No Iterations 167
time step continuity errors : sum local = 8.03985e-09, global = 4.68259e-10, cumulative = -0.00160972
ExecutionTime = 4.07589 s  ClockTime = 4 s

Courant Number mean: 0.015868 max: 0.975469
Interface Courant Number mean: 0.00118214 max: 0.975463
deltaT = 0.00793651
Time = 0.47619s

smoothSolver:  Solving for alpha.water, Initial residual = 0.00229813, Final residual = 6.57905e-09, No Iterations 5
Phase-1 volume fraction = 0.0263898  Min(alpha.water) = -2.75846e-08  Max(alpha.water) = 1
MULES: Correcting alpha.water
MULES: Correcting alpha.water
Phase-1 volume fraction = 0.0263898  Min(alpha.water) = -2.75846e-08  Max(alpha.water) = 1
DICPCG:  Solving for p_rgh, Initial residual = 0.0626059, Final residual = 0.00194227, No Iterations 3
time step continuity errors : sum local = 0.000168043, global = 7.29755e-10, cumulative = -0.00160972
DICPCG:  Solving for p_rgh, Initial residual = 0.0026065, Final residual = 0.000128533, No Iterations 24
time step continuity errors : sum local = 1.05247e-05, global = -1.24633e-09, cumulative = -0.00160972
DICPCG:  Solving for p_rgh, Initial residual = 0.00039604, Final residual = 9.33572e-08, No Iterations 168
time step continuity errors : sum local = 7.65543e-09, global = -3.08601e-11, cumulative = -0.00160972
ExecutionTime = 4.19209 s  ClockTime = 4 s

Courant Number mean: 0.0162276 max: 1.03997
Interface Courant Number mean: 0.00119272 max: 1.03996
deltaT = 0.00595238
Time = 0.482143s

smoothSolver:  Solving for alpha.water, Initial residual = 0.00176277, Final residual = 9.77723e-09, No Iterations 4
Phase-1 volume fraction = 0.0263898  Min(alpha.water) = -2.57169e-08  Max(alpha.water) = 1
MULES: Correcting alpha.water
MULES: Correcting alpha.water
Phase-1 volume fraction = 0.0263898  Min(alpha.water) = -2.57169e-08  Max(alpha.water) = 1
DICPCG:  Solving for p_rgh, Initial residual = 0.0491553, Final residual = 0.00151777, No Iterations 3
time step continuity errors : sum local = 6.78296e-05, global = -1.16045e-10, cumulative = -0.00160972
DICPCG:  Solving for p_rgh, Initial residual = 0.00214633, Final residual = 0.00010498, No Iterations 22
time step continuity errors : sum local = 4.50267e-06, global = -7.07287e-10, cumulative = -0.00160972
DICPCG:  Solving for p_rgh, Initial residual = 0.000348188, Final residual = 8.74984e-08, No Iterations 171
time step continuity errors : sum local = 3.75855e-09, global = 1.33371e-10, cumulative = -0.00160972
ExecutionTime = 4.30693 s  ClockTime = 4 s

Courant Number mean: 0.0124045 max: 0.802876
Interface Courant Number mean: 0.000933177 max: 0.802807
deltaT = 0.00595238
Time = 0.488095s

smoothSolver:  Solving for alpha.water, Initial residual = 0.00178456, Final residual = 1.13613e-09, No Iterations 5
Phase-1 volume fraction = 0.0263898  Min(alpha.water) = -2.3973e-08  Max(alpha.water) = 1
MULES: Correcting alpha.water
MULES: Correcting alpha.water
Phase-1 volume fraction = 0.0263898  Min(alpha.water) = -2.3973e-08  Max(alpha.water) = 1
DICPCG:  Solving for p_rgh, Initial residual = 0.049389, Final residual = 0.00160465, No Iterations 3
time step continuity errors : sum local = 6.52088e-05, global = 4.63973e-10, cumulative = -0.00160972
DICPCG:  Solving for p_rgh, Initial residual = 0.00227755, Final residual = 0.000103564, No Iterations 21
time step continuity errors : sum local = 4.0421e-06, global = 1.33856e-10, cumulative = -0.00160972
DICPCG:  Solving for p_rgh, Initial residual = 0.000339961, Final residual = 9.98873e-08, No Iterations 167
time step continuity errors : sum local = 3.90595e-09, global = 2.43938e-10, cumulative = -0.00160972
ExecutionTime = 4.42176 s  ClockTime = 4 s

Courant Number mean: 0.0125682 max: 0.857043
Interface Courant Number mean: 0.000957983 max: 0.857043
deltaT = 0.00595238
Time = 0.494048s

smoothSolver:  Solving for alpha.water, Initial residual = 0.00181553, Final residual = 1.25153e-09, No Iterations 5
Phase-1 volume fraction = 0.0263898  Min(alpha.water) = -2.23264e-08  Max(alpha.water) = 1
MULES: Correcting alpha.water
MULES: Correcting alpha.water
Phase-1 volume fraction = 0.0263898  Min(alpha.water) = -2.23264e-08  Max(alpha.water) = 1
DICPCG:  Solving for p_rgh, Initial residual = 0.0471691, Final residual = 0.00146641, No Iterations 3
time step continuity errors : sum local = 5.53978e-05, global = 3.20721e-10, cumulative = -0.00160972
DICPCG:  Solving for p_rgh, Initial residual = 0.00237719, Final residual = 0.000118408, No Iterations 24
time step continuity errors : sum local = 4.31252e-06, global = -9.45858e-12, cumulative = -0.00160972
DICPCG:  Solving for p_rgh, Initial residual = 0.000448513, Final residual = 9.79942e-08, No Iterations 165
time step continuity errors : sum local = 3.57489e-09, global = 1.73052e-10, cumulative = -0.00160972
ExecutionTime = 4.53545 s  ClockTime = 4 s

Courant Number mean: 0.0128227 max: 0.831295
Interface Courant Number mean: 0.000978944 max: 0.831295
deltaT = 0.00595238
Time = 0.5s

smoothSolver:  Solving for alpha.water, Initial residual = 0.00183562, Final residual = 1.49842e-09, No Iterations 5
Phase-1 volume fraction = 0.0263898  Min(alpha.water) = -2.07777e-08  Max(alpha.water) = 1
MULES: Correcting alpha.water
MULES: Correcting alpha.water
Phase-1 volume fraction = 0.0263898  Min(alpha.water) = -2.07777e-08  Max(alpha.water) = 1
DICPCG:  Solving for p_rgh, Initial residual = 0.0472311, Final residual = 0.00142396, No Iterations 3
time step continuity errors : sum local = 5.45824e-05, global = 4.16121e-10, cumulative = -0.00160972
DICPCG:  Solving for p_rgh, Initial residual = 0.00224478, Final residual = 0.000109558, No Iterations 19
time step continuity errors : sum local = 4.04067e-06, global = -7.19493e-11, cumulative = -0.00160972
DICPCG:  Solving for p_rgh, Initial residual = 0.000386961, Final residual = 9.30855e-08, No Iterations 168
time step continuity errors : sum local = 3.43931e-09, global = 1.10991e-10, cumulative = -0.00160972
ExecutionTime = 4.73632 s  ClockTime = 5 s

Courant Number mean: 0.0130155 max: 0.92226
Interface Courant Number mean: 0.00100437 max: 0.922073
deltaT = 0.00625
Time = 0.50625s

smoothSolver:  Solving for alpha.water, Initial residual = 0.0019546, Final residual = 2.27935e-09, No Iterations 5
Phase-1 volume fraction = 0.0263898  Min(alpha.water) = -1.92508e-08  Max(alpha.water) = 1
MULES: Correcting alpha.water
MULES: Correcting alpha.water
Phase-1 volume fraction = 0.0263898  Min(alpha.water) = -1.92508e-08  Max(alpha.water) = 1
DICPCG:  Solving for p_rgh, Initial residual = 0.0507445, Final residual = 0.00165116, No Iterations 3
time step continuity errors : sum local = 7.00819e-05, global = 9.16051e-11, cumulative = -0.00160972
DICPCG:  Solving for p_rgh, Initial residual = 0.00273503, Final residual = 0.000136585, No Iterations 19
time step continuity errors : sum local = 5.57839e-06, global = 1.63251e-10, cumulative = -0.00160972
DICPCG:  Solving for p_rgh, Initial residual = 0.000493354, Final residual = 9.97334e-08, No Iterations 161
time step continuity errors : sum local = 4.08112e-09, global = 2.01999e-10, cumulative = -0.00160972
ExecutionTime = 4.85512 s  ClockTime = 5 s

Courant Number mean: 0.0139223 max: 0.962429
Interface Courant Number mean: 0.00102017 max: 0.962233
deltaT = 0.00625
Time = 0.5125s

smoothSolver:  Solving for alpha.water, Initial residual = 0.0019757, Final residual = 2.61073e-09, No Iterations 5
Phase-1 volume fraction = 0.0263898  Min(alpha.water) = -1.78244e-08  Max(alpha.water) = 1
MULES: Correcting alpha.water
MULES: Correcting alpha.water
Phase-1 volume fraction = 0.0263898  Min(alpha.water) = -1.78244e-08  Max(alpha.water) = 1
DICPCG:  Solving for p_rgh, Initial residual = 0.0485272, Final residual = 0.00225702, No Iterations 2
time step continuity errors : sum local = 0.000105778, global = 6.12196e-10, cumulative = -0.00160972
DICPCG:  Solving for p_rgh, Initial residual = 0.00313945, Final residual = 0.000147909, No Iterations 13
time step continuity errors : sum local = 6.69421e-06, global = 2.09379e-10, cumulative = -0.00160972
DICPCG:  Solving for p_rgh, Initial residual = 0.000550253, Final residual = 9.76018e-08, No Iterations 170
time step continuity errors : sum local = 4.4209e-09, global = 1.74703e-10, cumulative = -0.00160972
ExecutionTime = 4.97265 s  ClockTime = 5 s

Courant Number mean: 0.0141794 max: 1.02031
Interface Courant Number mean: 0.00109643 max: 1.02031
deltaT = 0.00583333
Time = 0.518333s

smoothSolver:  Solving for alpha.water, Initial residual = 0.00186677, Final residual = 1.6161e-09, No Iterations 5
Phase-1 volume fraction = 0.0263898  Min(alpha.water) = -1.65787e-08  Max(alpha.water) = 1
MULES: Correcting alpha.water
MULES: Correcting alpha.water
Phase-1 volume fraction = 0.0263898  Min(alpha.water) = -1.65787e-08  Max(alpha.water) = 1
DICPCG:  Solving for p_rgh, Initial residual = 0.0463718, Final residual = 0.00187992, No Iterations 2
time step continuity errors : sum local = 9.64727e-05, global = 2.46008e-10, cumulative = -0.00160972
DICPCG:  Solving for p_rgh, Initial residual = 0.00264493, Final residual = 0.000130771, No Iterations 11
time step continuity errors : sum local = 6.44873e-06, global = 9.02296e-11, cumulative = -0.00160972
DICPCG:  Solving for p_rgh, Initial residual = 0.000425173, Final residual = 8.92604e-08, No Iterations 164
time step continuity errors : sum local = 4.40331e-09, global = 2.04547e-10, cumulative = -0.00160972
ExecutionTime = 5.08028 s  ClockTime = 5 s

Courant Number mean: 0.0134593 max: 0.968857
Interface Courant Number mean: 0.00103657 max: 0.968857
deltaT = 0.00583333
Time = 0.524167s

smoothSolver:  Solving for alpha.water, Initial residual = 0.00189435, Final residual = 9.33148e-09, No Iterations 4
Phase-1 volume fraction = 0.0263898  Min(alpha.water) = -1.54166e-08  Max(alpha.water) = 1
MULES: Correcting alpha.water
MULES: Correcting alpha.water
Phase-1 volume fraction = 0.0263898  Min(alpha.water) = -1.54166e-08  Max(alpha.water) = 1
DICPCG:  Solving for p_rgh, Initial residual = 0.0477331, Final residual = 0.00195212, No Iterations 2
time step continuity errors : sum local = 9.25083e-05, global = 4.40698e-10, cumulative = -0.00160972
DICPCG:  Solving for p_rgh, Initial residual = 0.00276142, Final residual = 0.000134875, No Iterations 12
time step continuity errors : sum local = 6.13211e-06, global = 3.75108e-10, cumulative = -0.00160971
DICPCG:  Solving for p_rgh, Initial residual = 0.000514798, Final residual = 9.99859e-08, No Iterations 167
time step continuity errors : sum local = 4.54651e-09, global = 6.17641e-11, cumulative = -0.00160971
ExecutionTime = 5.18755 s  ClockTime = 5 s

Courant Number mean: 0.0136711 max: 0.984254
Interface Courant Number mean: 0.00111681 max: 0.984053
deltaT = 0.00583333
Time = 0.53s

smoothSolver:  Solving for alpha.water, Initial residual = 0.00192968, Final residual = 1.66824e-09, No Iterations 5
Phase-1 volume fraction = 0.0263898  Min(alpha.water) = -1.43331e-08  Max(alpha.water) = 1
MULES: Correcting alpha.water
MULES: Correcting alpha.water
Phase-1 volume fraction = 0.0263898  Min(alpha.water) = -1.43331e-08  Max(alpha.water) = 1
DICPCG:  Solving for p_rgh, Initial residual = 0.0483156, Final residual = 0.0020106, No Iterations 2
time step continuity errors : sum local = 8.81055e-05, global = 3.235e-11, cumulative = -0.00160971
DICPCG:  Solving for p_rgh, Initial residual = 0.00288895, Final residual = 0.000143027, No Iterations 11
time step continuity errors : sum local = 6.02381e-06, global = -1.01333e-10, cumulative = -0.00160971
DICPCG:  Solving for p_rgh, Initial residual = 0.00048835, Final residual = 9.15999e-08, No Iterations 165
time step continuity errors : sum local = 3.85966e-09, global = 1.14878e-10, cumulative = -0.00160971
ExecutionTime = 5.29669 s  ClockTime = 5 s

Courant Number mean: 0.0139119 max: 1.02791
Interface Courant Number mean: 0.00119029 max: 1.02791
deltaT = 0.00538462
Time = 0.535385s

smoothSolver:  Solving for alpha.water, Initial residual = 0.00180373, Final residual = 6.22849e-09, No Iterations 4
Phase-1 volume fraction = 0.0263898  Min(alpha.water) = -1.33964e-08  Max(alpha.water) = 1
MULES: Correcting alpha.water
MULES: Correcting alpha.water
Phase-1 volume fraction = 0.0263898  Min(alpha.water) = -1.33964e-08  Max(alpha.water) = 1
DICPCG:  Solving for p_rgh, Initial residual = 0.044382, Final residual = 0.00179771, No Iterations 2
time step continuity errors : sum local = 6.61293e-05, global = 3.40583e-10, cumulative = -0.00160971
DICPCG:  Solving for p_rgh, Initial residual = 0.00260828, Final residual = 0.000119347, No Iterations 11
time step continuity errors : sum local = 4.23487e-06, global = 1.86106e-10, cumulative = -0.00160971
DICPCG:  Solving for p_rgh, Initial residual = 0.000535878, Final residual = 9.34935e-08, No Iterations 165
time step continuity errors : sum local = 3.31858e-09, global = 1.04078e-10, cumulative = -0.00160971
ExecutionTime = 5.40826 s  ClockTime = 5 s

Courant Number mean: 0.0130251 max: 0.927425
Interface Courant Number mean: 0.00111729 max: 0.927425
deltaT = 0.00538462
Time = 0.540769s

smoothSolver:  Solving for alpha.water, Initial residual = 0.00180757, Final residual = 5.70179e-09, No Iterations 4
Phase-1 volume fraction = 0.0263898  Min(alpha.water) = -1.2518e-08  Max(alpha.water) = 1
MULES: Correcting alpha.water
MULES: Correcting alpha.water
Phase-1 volume fraction = 0.0263898  Min(alpha.water) = -1.2518e-08  Max(alpha.water) = 1
DICPCG:  Solving for p_rgh, Initial residual = 0.0434806, Final residual = 0.00190602, No Iterations 2
time step continuity errors : sum local = 6.59826e-05, global = 1.35639e-10, cumulative = -0.00160971
DICPCG:  Solving for p_rgh, Initial residual = 0.0027475, Final residual = 0.000135461, No Iterations 12
time step continuity errors : sum local = 4.53836e-06, global = 1.55862e-10, cumulative = -0.00160971
DICPCG:  Solving for p_rgh, Initial residual = 0.000489557, Final residual = 9.46362e-08, No Iterations 166
time step continuity errors : sum local = 3.17288e-09, global = -8.46078e-12, cumulative = -0.00160971
ExecutionTime = 5.51976 s  ClockTime = 5 s

Courant Number mean: 0.0132132 max: 0.996657
Interface Courant Number mean: 0.00115082 max: 0.996657
deltaT = 0.00538462
Time = 0.546154s

smoothSolver:  Solving for alpha.water, Initial residual = 0.00181311, Final residual = 5.09772e-09, No Iterations 4
Phase-1 volume fraction = 0.0263898  Min(alpha.water) = -1.16981e-08  Max(alpha.water) = 1
MULES: Correcting alpha.water
MULES: Correcting alpha.water
Phase-1 volume fraction = 0.0263898  Min(alpha.water) = -1.16981e-08  Max(alpha.water) = 1
DICPCG:  Solving for p_rgh, Initial residual = 0.0435217, Final residual = 0.0021041, No Iterations 2
time step continuity errors : sum local = 7.86615e-05, global = -2.34557e-11, cumulative = -0.00160971
DICPCG:  Solving for p_rgh, Initial residual = 0.00301633, Final residual = 0.000136821, No Iterations 15
time step continuity errors : sum local = 4.9427e-06, global = -3.60473e-11, cumulative = -0.00160971
DICPCG:  Solving for p_rgh, Initial residual = 0.000616262, Final residual = 9.07687e-08, No Iterations 172
time step continuity errors : sum local = 3.27925e-09, global = 1.00664e-10, cumulative = -0.00160971
ExecutionTime = 5.63345 s  ClockTime = 5 s

Courant Number mean: 0.0134223 max: 0.943137
Interface Courant Number mean: 0.00120269 max: 0.943137
deltaT = 0.00538462
Time = 0.551538s

smoothSolver:  Solving for alpha.water, Initial residual = 0.00180952, Final residual = 5.54186e-09, No Iterations 4
Phase-1 volume fraction = 0.0263898  Min(alpha.water) = -1.09352e-08  Max(alpha.water) = 1
MULES: Correcting alpha.water
MULES: Correcting alpha.water
Phase-1 volume fraction = 0.0263898  Min(alpha.water) = -1.09352e-08  Max(alpha.water) = 1
DICPCG:  Solving for p_rgh, Initial residual = 0.042861, Final residual = 0.0021306, No Iterations 2
time step continuity errors : sum local = 8.16612e-05, global = 4.90605e-10, cumulative = -0.00160971
DICPCG:  Solving for p_rgh, Initial residual = 0.00295193, Final residual = 0.000137156, No Iterations 16
time step continuity errors : sum local = 5.07013e-06, global = 1.5685e-10, cumulative = -0.00160971
DICPCG:  Solving for p_rgh, Initial residual = 0.00051935, Final residual = 9.60595e-08, No Iterations 170
time step continuity errors : sum local = 3.55102e-09, global = 6.83495e-11, cumulative = -0.00160971
ExecutionTime = 5.74276 s  ClockTime = 6 s

Courant Number mean: 0.0136105 max: 1.03413
Interface Courant Number mean: 0.00125844 max: 1.03413
deltaT = 0.00484615
Time = 0.556385s

smoothSolver:  Solving for alpha.water, Initial residual = 0.0016285, Final residual = 2.82347e-09, No Iterations 4
Phase-1 volume fraction = 0.0263898  Min(alpha.water) = -1.02892e-08  Max(alpha.water) = 1
MULES: Correcting alpha.water
MULES: Correcting alpha.water
Phase-1 volume fraction = 0.0263898  Min(alpha.water) = -1.02892e-08  Max(alpha.water) = 1
DICPCG:  Solving for p_rgh, Initial residual = 0.0380877, Final residual = 0.00172441, No Iterations 2
time step continuity errors : sum local = 5.05869e-05, global = 8.57517e-12, cumulative = -0.00160971
DICPCG:  Solving for p_rgh, Initial residual = 0.00270415, Final residual = 0.000124134, No Iterations 15
time step continuity errors : sum local = 3.53677e-06, global = 3.18039e-11, cumulative = -0.00160971
DICPCG:  Solving for p_rgh, Initial residual = 0.00056965, Final residual = 9.37513e-08, No Iterations 171
time step continuity errors : sum local = 2.67175e-09, global = 5.90658e-11, cumulative = -0.00160971
ExecutionTime = 5.85489 s  ClockTime = 6 s

Courant Number mean: 0.0124264 max: 0.897025
Interface Courant Number mean: 0.00117613 max: 0.897025
deltaT = 0.00484615
Time = 0.561231s

smoothSolver:  Solving for alpha.water, Initial residual = 0.00162985, Final residual = 2.74525e-09, No Iterations 4
Phase-1 volume fraction = 0.0263898  Min(alpha.water) = -9.68243e-09  Max(alpha.water) = 1
MULES: Correcting alpha.water
MULES: Correcting alpha.water
Phase-1 volume fraction = 0.0263898  Min(alpha.water) = -9.68243e-09  Max(alpha.water) = 1
DICPCG:  Solving for p_rgh, Initial residual = 0.0379892, Final residual = 0.00161689, No Iterations 2
time step continuity errors : sum local = 4.78032e-05, global = 3.0679e-10, cumulative = -0.00160971
DICPCG:  Solving for p_rgh, Initial residual = 0.00238733, Final residual = 0.000106823, No Iterations 17
time step continuity errors : sum local = 3.06063e-06, global = 7.12728e-11, cumulative = -0.00160971
DICPCG:  Solving for p_rgh, Initial residual = 0.000457475, Final residual = 9.26686e-08, No Iterations 166
time step continuity errors : sum local = 2.65647e-09, global = 9.11951e-11, cumulative = -0.00160971
ExecutionTime = 5.96395 s  ClockTime = 6 s

Courant Number mean: 0.0125717 max: 0.943348
Interface Courant Number mean: 0.00115485 max: 0.943157
deltaT = 0.00484615
Time = 0.566077s

smoothSolver:  Solving for alpha.water, Initial residual = 0.00163209, Final residual = 2.99902e-09, No Iterations 4
Phase-1 volume fraction = 0.0263898  Min(alpha.water) = -9.11163e-09  Max(alpha.water) = 1
MULES: Correcting alpha.water
MULES: Correcting alpha.water
Phase-1 volume fraction = 0.0263898  Min(alpha.water) = -9.11163e-09  Max(alpha.water) = 1
DICPCG:  Solving for p_rgh, Initial residual = 0.0395396, Final residual = 0.00150402, No Iterations 2
time step continuity errors : sum local = 4.4687e-05, global = 7.52772e-11, cumulative = -0.00160971
DICPCG:  Solving for p_rgh, Initial residual = 0.00255619, Final residual = 0.000119994, No Iterations 15
time step continuity errors : sum local = 3.45768e-06, global = 5.12109e-11, cumulative = -0.00160971
DICPCG:  Solving for p_rgh, Initial residual = 0.000519805, Final residual = 8.80145e-08, No Iterations 135
time step continuity errors : sum local = 2.53841e-09, global = 1.60202e-10, cumulative = -0.00160971
ExecutionTime = 6.06501 s  ClockTime = 6 s

Courant Number mean: 0.0127688 max: 0.938822
Interface Courant Number mean: 0.00108674 max: 0.938633
deltaT = 0.00484615
Time = 0.570923s

smoothSolver:  Solving for alpha.water, Initial residual = 0.0016285, Final residual = 3.06875e-09, No Iterations 4
Phase-1 volume fraction = 0.0263898  Min(alpha.water) = -8.57653e-09  Max(alpha.water) = 1
MULES: Correcting alpha.water
MULES: Correcting alpha.water
Phase-1 volume fraction = 0.0263898  Min(alpha.water) = -8.57653e-09  Max(alpha.water) = 1
DICPCG:  Solving for p_rgh, Initial residual = 0.039139, Final residual = 0.00157006, No Iterations 3
time step continuity errors : sum local = 4.75938e-05, global = 4.98788e-10, cumulative = -0.00160971
DICPCG:  Solving for p_rgh, Initial residual = 0.00236769, Final residual = 0.000107678, No Iterations 19
time step continuity errors : sum local = 3.16584e-06, global = 3.5634e-10, cumulative = -0.00160971
DICPCG:  Solving for p_rgh, Initial residual = 0.00044668, Final residual = 9.60652e-08, No Iterations 154
time step continuity errors : sum local = 2.82763e-09, global = 5.56526e-11, cumulative = -0.00160971
ExecutionTime = 6.17276 s  ClockTime = 6 s

Courant Number mean: 0.0129236 max: 0.940477
Interface Courant Number mean: 0.00112695 max: 0.940477
deltaT = 0.00484615
Time = 0.575769s

smoothSolver:  Solving for alpha.water, Initial residual = 0.00162605, Final residual = 3.22625e-09, No Iterations 4
Phase-1 volume fraction = 0.0263898  Min(alpha.water) = -8.07449e-09  Max(alpha.water) = 1
MULES: Correcting alpha.water
MULES: Correcting alpha.water
Phase-1 volume fraction = 0.0263898  Min(alpha.water) = -8.07449e-09  Max(alpha.water) = 1
DICPCG:  Solving for p_rgh, Initial residual = 0.0407637, Final residual = 0.00142729, No Iterations 3
time step continuity errors : sum local = 4.97487e-05, global = -2.53033e-11, cumulative = -0.00160971
DICPCG:  Solving for p_rgh, Initial residual = 0.00241265, Final residual = 0.00012009, No Iterations 16
time step continuity errors : sum local = 4.04111e-06, global = -5.61366e-11, cumulative = -0.00160971
DICPCG:  Solving for p_rgh, Initial residual = 0.000414963, Final residual = 9.82766e-08, No Iterations 170
time step continuity errors : sum local = 3.30977e-09, global = 1.1742e-10, cumulative = -0.00160971
ExecutionTime = 6.28081 s  ClockTime = 6 s

Courant Number mean: 0.0131117 max: 0.968024
Interface Courant Number mean: 0.00092033 max: 0.516673
deltaT = 0.00484615
Time = 0.580615s

smoothSolver:  Solving for alpha.water, Initial residual = 0.00163228, Final residual = 3.56365e-09, No Iterations 4
Phase-1 volume fraction = 0.0263898  Min(alpha.water) = -7.60384e-09  Max(alpha.water) = 1
MULES: Correcting alpha.water
MULES: Correcting alpha.water
Phase-1 volume fraction = 0.0263898  Min(alpha.water) = -7.60384e-09  Max(alpha.water) = 1
DICPCG:  Solving for p_rgh, Initial residual = 0.0417699, Final residual = 0.00151925, No Iterations 3
time step continuity errors : sum local = 4.92189e-05, global = 3.65681e-10, cumulative = -0.00160971
DICPCG:  Solving for p_rgh, Initial residual = 0.00224344, Final residual = 0.000108396, No Iterations 18
time step continuity errors : sum local = 3.38783e-06, global = 8.9943e-11, cumulative = -0.00160971
DICPCG:  Solving for p_rgh, Initial residual = 0.000422737, Final residual = 9.33047e-08, No Iterations 167
time step continuity errors : sum local = 2.91851e-09, global = 9.21384e-11, cumulative = -0.00160971
ExecutionTime = 6.39088 s  ClockTime = 6 s

Courant Number mean: 0.0132627 max: 0.926472
Interface Courant Number mean: 0.000944022 max: 0.495917
deltaT = 0.00484615
Time = 0.585462s

smoothSolver:  Solving for alpha.water, Initial residual = 0.00165109, Final residual = 3.49682e-09, No Iterations 4
Phase-1 volume fraction = 0.0263898  Min(alpha.water) = -7.16201e-09  Max(alpha.water) = 1
MULES: Correcting alpha.water
MULES: Correcting alpha.water
Phase-1 volume fraction = 0.0263898  Min(alpha.water) = -7.16201e-09  Max(alpha.water) = 1
DICPCG:  Solving for p_rgh, Initial residual = 0.0419539, Final residual = 0.0015313, No Iterations 3
time step continuity errors : sum local = 4.63652e-05, global = 1.37922e-10, cumulative = -0.00160971
DICPCG:  Solving for p_rgh, Initial residual = 0.00255189, Final residual = 0.000125582, No Iterations 17
time step continuity errors : sum local = 3.66625e-06, global = 7.86522e-11, cumulative = -0.00160971
DICPCG:  Solving for p_rgh, Initial residual = 0.000432765, Final residual = 9.81787e-08, No Iterations 161
time step continuity errors : sum local = 2.87034e-09, global = 1.56115e-10, cumulative = -0.00160971
ExecutionTime = 6.49848 s  ClockTime = 6 s

Courant Number mean: 0.0134233 max: 0.986638
Interface Courant Number mean: 0.000984101 max: 0.482642
deltaT = 0.00484615
Time = 0.590308s

smoothSolver:  Solving for alpha.water, Initial residual = 0.0016791, Final residual = 3.86557e-09, No Iterations 4
Phase-1 volume fraction = 0.0263898  Min(alpha.water) = -6.74714e-09  Max(alpha.water) = 1
MULES: Correcting alpha.water
MULES: Correcting alpha.water
Phase-1 volume fraction = 0.0263898  Min(alpha.water) = -6.74714e-09  Max(alpha.water) = 1
DICPCG:  Solving for p_rgh, Initial residual = 0.0444223, Final residual = 0.00154745, No Iterations 3
time step continuity errors : sum local = 4.46159e-05, global = 3.48417e-10, cumulative = -0.00160971
DICPCG:  Solving for p_rgh, Initial residual = 0.00252406, Final residual = 0.000118972, No Iterations 19
time step continuity errors : sum local = 3.30027e-06, global = 2.36532e-10, cumulative = -0.00160971
DICPCG:  Solving for p_rgh, Initial residual = 0.00050104, Final residual = 9.89424e-08, No Iterations 167
time step continuity errors : sum local = 2.74739e-09, global = 1.11218e-10, cumulative = -0.00160971
ExecutionTime = 6.60644 s  ClockTime = 6 s

Courant Number mean: 0.0135887 max: 0.957269
Interface Courant Number mean: 0.00101046 max: 0.473825
deltaT = 0.00484615
Time = 0.595154s

smoothSolver:  Solving for alpha.water, Initial residual = 0.00169739, Final residual = 3.94548e-09, No Iterations 4
Phase-1 volume fraction = 0.0263898  Min(alpha.water) = -6.35801e-09  Max(alpha.water) = 1
MULES: Correcting alpha.water
MULES: Correcting alpha.water
Phase-1 volume fraction = 0.0263898  Min(alpha.water) = -6.35801e-09  Max(alpha.water) = 1
DICPCG:  Solving for p_rgh, Initial residual = 0.0449093, Final residual = 0.00155541, No Iterations 3
time step continuity errors : sum local = 4.1734e-05, global = 2.23612e-10, cumulative = -0.00160971
DICPCG:  Solving for p_rgh, Initial residual = 0.00258396, Final residual = 0.000125359, No Iterations 19
time step continuity errors : sum local = 3.23601e-06, global = 2.88696e-11, cumulative = -0.00160971
DICPCG:  Solving for p_rgh, Initial residual = 0.000462747, Final residual = 9.32386e-08, No Iterations 167
time step continuity errors : sum local = 2.40875e-09, global = 7.02739e-11, cumulative = -0.00160971
ExecutionTime = 6.71676 s  ClockTime = 7 s

Courant Number mean: 0.0137497 max: 0.99347
Interface Courant Number mean: 0.00100443 max: 0.468384
deltaT = 0.00484615
Time = 0.6s

smoothSolver:  Solving for alpha.water, Initial residual = 0.00170762, Final residual = 4.09438e-09, No Iterations 4
Phase-1 volume fraction = 0.0263898  Min(alpha.water) = -5.99302e-09  Max(alpha.water) = 1
MULES: Correcting alpha.water
MULES: Correcting alpha.water
Phase-1 volume fraction = 0.0263898  Min(alpha.water) = -5.99302e-09  Max(alpha.water) = 1
DICPCG:  Solving for p_rgh, Initial residual = 0.0440521, Final residual = 0.00152491, No Iterations 3
time step continuity errors : sum local = 3.89683e-05, global = 1.1839e-10, cumulative = -0.00160971
DICPCG:  Solving for p_rgh, Initial residual = 0.00281612, Final residual = 0.000140036, No Iterations 18
time step continuity errors : sum local = 3.4611e-06, global = 2.90226e-11, cumulative = -0.00160971
DICPCG:  Solving for p_rgh, Initial residual = 0.000571635, Final residual = 9.46718e-08, No Iterations 170
time step continuity errors : sum local = 2.34157e-09, global = 9.51508e-11, cumulative = -0.00160971
ExecutionTime = 6.91505 s  ClockTime = 7 s

Courant Number mean: 0.0139339 max: 0.981561
Interface Courant Number mean: 0.0010007 max: 0.465667
deltaT = 0.0047619
Time = 0.604762s

smoothSolver:  Solving for alpha.water, Initial residual = 0.00168791, Final residual = 3.8805e-09, No Iterations 4
Phase-1 volume fraction = 0.0263898  Min(alpha.water) = -5.65653e-09  Max(alpha.water) = 1
MULES: Correcting alpha.water
MULES: Correcting alpha.water
Phase-1 volume fraction = 0.0263898  Min(alpha.water) = -5.65653e-09  Max(alpha.water) = 1
DICPCG:  Solving for p_rgh, Initial residual = 0.0426543, Final residual = 0.00159714, No Iterations 3
time step continuity errors : sum local = 4.30438e-05, global = 3.06843e-10, cumulative = -0.00160971
DICPCG:  Solving for p_rgh, Initial residual = 0.00246414, Final residual = 0.000122666, No Iterations 19
time step continuity errors : sum local = 3.19152e-06, global = 8.58934e-11, cumulative = -0.00160971
DICPCG:  Solving for p_rgh, Initial residual = 0.00046226, Final residual = 9.70373e-08, No Iterations 168
time step continuity errors : sum local = 2.52406e-09, global = 1.32474e-10, cumulative = -0.00160971
ExecutionTime = 7.03264 s  ClockTime = 7 s

Courant Number mean: 0.0138507 max: 0.966729
Interface Courant Number mean: 0.000978917 max: 0.456763
deltaT = 0.0047619
Time = 0.609524s

smoothSolver:  Solving for alpha.water, Initial residual = 0.00169906, Final residual = 3.81978e-09, No Iterations 4
Phase-1 volume fraction = 0.0263898  Min(alpha.water) = -5.34054e-09  Max(alpha.water) = 1
MULES: Correcting alpha.water
MULES: Correcting alpha.water
Phase-1 volume fraction = 0.0263898  Min(alpha.water) = -5.34054e-09  Max(alpha.water) = 1
DICPCG:  Solving for p_rgh, Initial residual = 0.0436591, Final residual = 0.00140088, No Iterations 3
time step continuity errors : sum local = 3.80809e-05, global = 2.45918e-10, cumulative = -0.00160971
DICPCG:  Solving for p_rgh, Initial residual = 0.00262295, Final residual = 0.000121588, No Iterations 18
time step continuity errors : sum local = 3.18543e-06, global = 1.39383e-10, cumulative = -0.00160971
DICPCG:  Solving for p_rgh, Initial residual = 0.000507631, Final residual = 9.3572e-08, No Iterations 170
time step continuity errors : sum local = 2.45251e-09, global = 1.09054e-10, cumulative = -0.00160971
ExecutionTime = 7.14513 s  ClockTime = 7 s

Courant Number mean: 0.0140303 max: 0.980285
Interface Courant Number mean: 0.00100068 max: 0.481614
deltaT = 0.0047619
Time = 0.614286s

smoothSolver:  Solving for alpha.water, Initial residual = 0.00171049, Final residual = 4.16333e-09, No Iterations 4
Phase-1 volume fraction = 0.0263898  Min(alpha.water) = -5.04402e-09  Max(alpha.water) = 1
MULES: Correcting alpha.water
MULES: Correcting alpha.water
Phase-1 volume fraction = 0.0263898  Min(alpha.water) = -5.04402e-09  Max(alpha.water) = 1
DICPCG:  Solving for p_rgh, Initial residual = 0.0427223, Final residual = 0.00143763, No Iterations 3
time step continuity errors : sum local = 3.63572e-05, global = 2.5967e-10, cumulative = -0.00160971
DICPCG:  Solving for p_rgh, Initial residual = 0.00230835, Final residual = 0.000110975, No Iterations 19
time step continuity errors : sum local = 2.70871e-06, global = 6.66156e-11, cumulative = -0.00160971
DICPCG:  Solving for p_rgh, Initial residual = 0.000471376, Final residual = 9.99076e-08, No Iterations 164
time step continuity errors : sum local = 2.43957e-09, global = 1.33111e-10, cumulative = -0.00160971
ExecutionTime = 7.25408 s  ClockTime = 7 s

Courant Number mean: 0.0141878 max: 0.950618
Interface Courant Number mean: 0.00103919 max: 0.478722
deltaT = 0.0047619
Time = 0.619048s

smoothSolver:  Solving for alpha.water, Initial residual = 0.0017242, Final residual = 4.22916e-09, No Iterations 4
Phase-1 volume fraction = 0.0263898  Min(alpha.water) = -4.76587e-09  Max(alpha.water) = 1
MULES: Correcting alpha.water
MULES: Correcting alpha.water
Phase-1 volume fraction = 0.0263898  Min(alpha.water) = -4.76587e-09  Max(alpha.water) = 1
DICPCG:  Solving for p_rgh, Initial residual = 0.042918, Final residual = 0.00166651, No Iterations 3
time step continuity errors : sum local = 4.27942e-05, global = 2.68832e-10, cumulative = -0.00160971
DICPCG:  Solving for p_rgh, Initial residual = 0.00290331, Final residual = 0.000141346, No Iterations 18
time step continuity errors : sum local = 3.50768e-06, global = 1.54289e-10, cumulative = -0.00160971
DICPCG:  Solving for p_rgh, Initial residual = 0.000501405, Final residual = 9.17058e-08, No Iterations 171
time step continuity errors : sum local = 2.27703e-09, global = 9.19921e-11, cumulative = -0.00160971
ExecutionTime = 7.36401 s  ClockTime = 7 s

Courant Number mean: 0.014359 max: 0.987486
Interface Courant Number mean: 0.00104506 max: 0.477282
deltaT = 0.0047619
Time = 0.62381s

smoothSolver:  Solving for alpha.water, Initial residual = 0.00173807, Final residual = 4.37578e-09, No Iterations 4
Phase-1 volume fraction = 0.0263898  Min(alpha.water) = -4.50517e-09  Max(alpha.water) = 1
MULES: Correcting alpha.water
MULES: Correcting alpha.water
Phase-1 volume fraction = 0.0263898  Min(alpha.water) = -4.50517e-09  Max(alpha.water) = 1
DICPCG:  Solving for p_rgh, Initial residual = 0.0427908, Final residual = 0.00142925, No Iterations 3
time step continuity errors : sum local = 3.71997e-05, global = 1.87591e-10, cumulative = -0.00160971
DICPCG:  Solving for p_rgh, Initial residual = 0.0022953, Final residual = 0.000106294, No Iterations 20
time step continuity errors : sum local = 2.66937e-06, global = 5.50047e-11, cumulative = -0.00160971
DICPCG:  Solving for p_rgh, Initial residual = 0.000451319, Final residual = 9.58151e-08, No Iterations 167
time step continuity errors : sum local = 2.40788e-09, global = 1.03229e-10, cumulative = -0.00160971
ExecutionTime = 7.47432 s  ClockTime = 7 s

Courant Number mean: 0.0144965 max: 0.967918
Interface Courant Number mean: 0.00103681 max: 0.476728
deltaT = 0.0047619
Time = 0.628571s

smoothSolver:  Solving for alpha.water, Initial residual = 0.00174608, Final residual = 4.54408e-09, No Iterations 4
Phase-1 volume fraction = 0.0263898  Min(alpha.water) = -4.26072e-09  Max(alpha.water) = 1
MULES: Correcting alpha.water
MULES: Correcting alpha.water
Phase-1 volume fraction = 0.0263898  Min(alpha.water) = -4.26072e-09  Max(alpha.water) = 1
DICPCG:  Solving for p_rgh, Initial residual = 0.0378642, Final residual = 0.00146016, No Iterations 3
time step continuity errors : sum local = 3.95648e-05, global = 1.60736e-10, cumulative = -0.00160971
DICPCG:  Solving for p_rgh, Initial residual = 0.00243874, Final residual = 0.000113403, No Iterations 19
time step continuity errors : sum local = 2.97744e-06, global = 8.93397e-11, cumulative = -0.00160971
DICPCG:  Solving for p_rgh, Initial residual = 0.000413989, Final residual = 9.24052e-08, No Iterations 170
time step continuity errors : sum local = 2.42839e-09, global = 9.57059e-11, cumulative = -0.00160971
ExecutionTime = 7.5853 s  ClockTime = 7 s

Courant Number mean: 0.0146346 max: 0.983635
Interface Courant Number mean: 0.00106447 max: 0.476653
deltaT = 0.0047619
Time = 0.633333s

smoothSolver:  Solving for alpha.water, Initial residual = 0.00175099, Final residual = 4.57603e-09, No Iterations 4
Phase-1 volume fraction = 0.0263898  Min(alpha.water) = -4.0321e-09  Max(alpha.water) = 1
MULES: Correcting alpha.water
MULES: Correcting alpha.water
Phase-1 volume fraction = 0.0263898  Min(alpha.water) = -4.0321e-09  Max(alpha.water) = 1
DICPCG:  Solving for p_rgh, Initial residual = 0.0408814, Final residual = 0.00138098, No Iterations 3
time step continuity errors : sum local = 4.28844e-05, global = 2.08271e-10, cumulative = -0.00160971
DICPCG:  Solving for p_rgh, Initial residual = 0.00225367, Final residual = 0.000104544, No Iterations 20
time step continuity errors : sum local = 3.13451e-06, global = 9.36977e-11, cumulative = -0.00160971
DICPCG:  Solving for p_rgh, Initial residual = 0.00041062, Final residual = 9.30531e-08, No Iterations 160
time step continuity errors : sum local = 2.79204e-09, global = 1.59903e-10, cumulative = -0.00160971
ExecutionTime = 7.69344 s  ClockTime = 8 s

Courant Number mean: 0.0147829 max: 0.977929
Interface Courant Number mean: 0.00110516 max: 0.497401
deltaT = 0.0047619
Time = 0.638095s

smoothSolver:  Solving for alpha.water, Initial residual = 0.00176011, Final residual = 4.82446e-09, No Iterations 4
Phase-1 volume fraction = 0.0263898  Min(alpha.water) = -3.81864e-09  Max(alpha.water) = 1
MULES: Correcting alpha.water
MULES: Correcting alpha.water
Phase-1 volume fraction = 0.0263898  Min(alpha.water) = -3.81864e-09  Max(alpha.water) = 1
DICPCG:  Solving for p_rgh, Initial residual = 0.0411232, Final residual = 0.00137436, No Iterations 3
time step continuity errors : sum local = 4.117e-05, global = 3.48608e-10, cumulative = -0.00160971
DICPCG:  Solving for p_rgh, Initial residual = 0.00212224, Final residual = 0.000104678, No Iterations 20
time step continuity errors : sum local = 3.02451e-06, global = 1.65583e-10, cumulative = -0.00160971
DICPCG:  Solving for p_rgh, Initial residual = 0.000391926, Final residual = 9.66356e-08, No Iterations 159
time step continuity errors : sum local = 2.79416e-09, global = 2.24354e-11, cumulative = -0.00160971
ExecutionTime = 7.80111 s  ClockTime = 8 s

Courant Number mean: 0.0149239 max: 0.968
Interface Courant Number mean: 0.00112634 max: 0.496147
deltaT = 0.0047619
Time = 0.642857s

smoothSolver:  Solving for alpha.water, Initial residual = 0.00177706, Final residual = 4.91954e-09, No Iterations 4
Phase-1 volume fraction = 0.0263898  Min(alpha.water) = -3.61647e-09  Max(alpha.water) = 1
MULES: Correcting alpha.water
MULES: Correcting alpha.water
Phase-1 volume fraction = 0.0263898  Min(alpha.water) = -3.61647e-09  Max(alpha.water) = 1
DICPCG:  Solving for p_rgh, Initial residual = 0.0392903, Final residual = 0.00125091, No Iterations 3
time step continuity errors : sum local = 3.56975e-05, global = 3.78468e-12, cumulative = -0.00160971
DICPCG:  Solving for p_rgh, Initial residual = 0.00230096, Final residual = 0.000107299, No Iterations 18
time step continuity errors : sum local = 2.96306e-06, global = -3.43286e-11, cumulative = -0.00160971
DICPCG:  Solving for p_rgh, Initial residual = 0.00044038, Final residual = 9.97844e-08, No Iterations 168
time step continuity errors : sum local = 2.7587e-09, global = 1.26413e-10, cumulative = -0.00160971
ExecutionTime = 7.91122 s  ClockTime = 8 s

Courant Number mean: 0.0150783 max: 0.982973
Interface Courant Number mean: 0.00110149 max: 0.49523
deltaT = 0.0047619
Time = 0.647619s

smoothSolver:  Solving for alpha.water, Initial residual = 0.00178695, Final residual = 5.03795e-09, No Iterations 4
Phase-1 volume fraction = 0.0263898  Min(alpha.water) = -3.4255e-09  Max(alpha.water) = 1
MULES: Correcting alpha.water
MULES: Correcting alpha.water
Phase-1 volume fraction = 0.0263898  Min(alpha.water) = -3.4255e-09  Max(alpha.water) = 1
DICPCG:  Solving for p_rgh, Initial residual = 0.0393336, Final residual = 0.00193975, No Iterations 2
time step continuity errors : sum local = 6.06832e-05, global = 3.65487e-10, cumulative = -0.0016097
DICPCG:  Solving for p_rgh, Initial residual = 0.00255718, Final residual = 0.000119812, No Iterations 16
time step continuity errors : sum local = 3.62052e-06, global = 1.26272e-10, cumulative = -0.0016097
DICPCG:  Solving for p_rgh, Initial residual = 0.000434833, Final residual = 8.75188e-08, No Iterations 164
time step continuity errors : sum local = 2.64552e-09, global = -5.15567e-11, cumulative = -0.0016097
ExecutionTime = 8.01928 s  ClockTime = 8 s

Courant Number mean: 0.0152304 max: 0.964788
Interface Courant Number mean: 0.00109624 max: 0.494413
deltaT = 0.0047619
Time = 0.652381s

smoothSolver:  Solving for alpha.water, Initial residual = 0.00178761, Final residual = 5.22626e-09, No Iterations 4
Phase-1 volume fraction = 0.0263898  Min(alpha.water) = -3.24552e-09  Max(alpha.water) = 1
MULES: Correcting alpha.water
MULES: Correcting alpha.water
Phase-1 volume fraction = 0.0263898  Min(alpha.water) = -3.24552e-09  Max(alpha.water) = 1
[...]

Courant Number mean: 0.143874 max: 1.08688
Interface Courant Number mean: 0.0143159 max: 1.08688
deltaT = 0.00619048
Time = 9.91333s

smoothSolver:  Solving for alpha.water, Initial residual = 0.00550647, Final residual = 4.9614e-09, No Iterations 4
Phase-1 volume fraction = 0.0261492  Min(alpha.water) = -6.62533e-20  Max(alpha.water) = 0.999997
MULES: Correcting alpha.water
MULES: Correcting alpha.water
Phase-1 volume fraction = 0.0261492  Min(alpha.water) = -2.86261e-08  Max(alpha.water) = 0.999997
DICPCG:  Solving for p_rgh, Initial residual = 0.0415365, Final residual = 0.00172376, No Iterations 2
time step continuity errors : sum local = 0.000105289, global = -3.3917e-08, cumulative = -0.00156491
DICPCG:  Solving for p_rgh, Initial residual = 0.00264784, Final residual = 0.000116396, No Iterations 8
time step continuity errors : sum local = 7.11026e-06, global = -1.10104e-08, cumulative = -0.00156492
DICPCG:  Solving for p_rgh, Initial residual = 0.000522879, Final residual = 9.19378e-08, No Iterations 162
time step continuity errors : sum local = 5.61466e-09, global = 1.44054e-11, cumulative = -0.00156492
ExecutionTime = 228.191 s  ClockTime = 228 s

Courant Number mean: 0.124815 max: 0.89169
Interface Courant Number mean: 0.0124978 max: 0.89169
deltaT = 0.00666667
Time = 9.92s

smoothSolver:  Solving for alpha.water, Initial residual = 0.00587701, Final residual = 7.927e-09, No Iterations 4
Phase-1 volume fraction = 0.0261492  Min(alpha.water) = -5.6915e-20  Max(alpha.water) = 0.999997
MULES: Correcting alpha.water
MULES: Correcting alpha.water
Phase-1 volume fraction = 0.0261492  Min(alpha.water) = -3.77515e-08  Max(alpha.water) = 0.999997
DICPCG:  Solving for p_rgh, Initial residual = 0.0440415, Final residual = 0.00175006, No Iterations 2
time step continuity errors : sum local = 0.000121492, global = -3.72212e-08, cumulative = -0.00156496
DICPCG:  Solving for p_rgh, Initial residual = 0.00273091, Final residual = 0.000134794, No Iterations 7
time step continuity errors : sum local = 9.37256e-06, global = -6.94788e-09, cumulative = -0.00156496
DICPCG:  Solving for p_rgh, Initial residual = 0.000537419, Final residual = 8.86644e-08, No Iterations 164
time step continuity errors : sum local = 6.16526e-09, global = -3.29034e-10, cumulative = -0.00156496
ExecutionTime = 228.289 s  ClockTime = 228 s

Courant Number mean: 0.13455 max: 1.05832
Interface Courant Number mean: 0.0135979 max: 1.05832
deltaT = 0.00615385
Time = 9.92615s

smoothSolver:  Solving for alpha.water, Initial residual = 0.00540233, Final residual = 5.88874e-09, No Iterations 4
Phase-1 volume fraction = 0.0261492  Min(alpha.water) = -5.33135e-20  Max(alpha.water) = 0.999997
MULES: Correcting alpha.water
MULES: Correcting alpha.water
Phase-1 volume fraction = 0.0261492  Min(alpha.water) = -2.81088e-08  Max(alpha.water) = 0.999997
DICPCG:  Solving for p_rgh, Initial residual = 0.0420089, Final residual = 0.00162366, No Iterations 2
time step continuity errors : sum local = 9.86254e-05, global = -3.31355e-08, cumulative = -0.001565
DICPCG:  Solving for p_rgh, Initial residual = 0.0025689, Final residual = 0.000128182, No Iterations 8
time step continuity errors : sum local = 7.78648e-06, global = -1.07799e-08, cumulative = -0.00156501
DICPCG:  Solving for p_rgh, Initial residual = 0.000520164, Final residual = 9.04389e-08, No Iterations 161
time step continuity errors : sum local = 5.49366e-09, global = 1.42723e-10, cumulative = -0.00156501
ExecutionTime = 228.387 s  ClockTime = 228 s

Courant Number mean: 0.124315 max: 0.935824
Interface Courant Number mean: 0.0125888 max: 0.935824
deltaT = 0.00615385
Time = 9.93231s

smoothSolver:  Solving for alpha.water, Initial residual = 0.00538471, Final residual = 5.97088e-09, No Iterations 4
Phase-1 volume fraction = 0.0261492  Min(alpha.water) = -5.10822e-20  Max(alpha.water) = 0.999997
MULES: Correcting alpha.water
MULES: Correcting alpha.water
Phase-1 volume fraction = 0.0261492  Min(alpha.water) = -3.07285e-08  Max(alpha.water) = 0.999997
DICPCG:  Solving for p_rgh, Initial residual = 0.0430472, Final residual = 0.00158689, No Iterations 2
time step continuity errors : sum local = 9.6199e-05, global = -2.94487e-08, cumulative = -0.00156504
DICPCG:  Solving for p_rgh, Initial residual = 0.00248118, Final residual = 0.000112211, No Iterations 7
time step continuity errors : sum local = 6.79682e-06, global = -5.22618e-09, cumulative = -0.00156504
DICPCG:  Solving for p_rgh, Initial residual = 0.000462872, Final residual = 9.33399e-08, No Iterations 158
time step continuity errors : sum local = 5.65379e-09, global = 1.36342e-10, cumulative = -0.00156504
ExecutionTime = 228.484 s  ClockTime = 228 s

Courant Number mean: 0.12445 max: 1.0184
Interface Courant Number mean: 0.0125289 max: 1.0184
deltaT = 0.00564103
Time = 9.93795s

smoothSolver:  Solving for alpha.water, Initial residual = 0.00493193, Final residual = 3.65635e-09, No Iterations 4
Phase-1 volume fraction = 0.0261492  Min(alpha.water) = -4.84209e-20  Max(alpha.water) = 0.999997
MULES: Correcting alpha.water
MULES: Correcting alpha.water
Phase-1 volume fraction = 0.0261492  Min(alpha.water) = -2.19681e-08  Max(alpha.water) = 0.999997
DICPCG:  Solving for p_rgh, Initial residual = 0.038214, Final residual = 0.0015224, No Iterations 2
time step continuity errors : sum local = 7.89799e-05, global = -2.32845e-08, cumulative = -0.00156507
DICPCG:  Solving for p_rgh, Initial residual = 0.00246174, Final residual = 0.000100416, No Iterations 7
time step continuity errors : sum local = 5.2122e-06, global = -4.23221e-09, cumulative = -0.00156507
DICPCG:  Solving for p_rgh, Initial residual = 0.000448929, Final residual = 9.04177e-08, No Iterations 165
time step continuity errors : sum local = 4.69297e-09, global = 2.82716e-10, cumulative = -0.00156507
ExecutionTime = 228.583 s  ClockTime = 229 s

Courant Number mean: 0.114181 max: 0.907516
Interface Courant Number mean: 0.0115911 max: 0.907516
deltaT = 0.00620513
Time = 9.94415s

smoothSolver:  Solving for alpha.water, Initial residual = 0.00539892, Final residual = 7.26536e-09, No Iterations 4
Phase-1 volume fraction = 0.0261492  Min(alpha.water) = -4.4394e-20  Max(alpha.water) = 0.999997
MULES: Correcting alpha.water
MULES: Correcting alpha.water
Phase-1 volume fraction = 0.0261492  Min(alpha.water) = -3.83662e-08  Max(alpha.water) = 0.999997
DICPCG:  Solving for p_rgh, Initial residual = 0.0414367, Final residual = 0.00182807, No Iterations 2
time step continuity errors : sum local = 0.000112914, global = -2.93108e-08, cumulative = -0.0015651
DICPCG:  Solving for p_rgh, Initial residual = 0.00270643, Final residual = 0.000114062, No Iterations 7
time step continuity errors : sum local = 7.03187e-06, global = -7.33711e-09, cumulative = -0.00156511
DICPCG:  Solving for p_rgh, Initial residual = 0.000513346, Final residual = 9.68304e-08, No Iterations 136
time step continuity errors : sum local = 5.97002e-09, global = -2.13918e-10, cumulative = -0.00156511
ExecutionTime = 228.675 s  ClockTime = 229 s

Courant Number mean: 0.125728 max: 1.04618
Interface Courant Number mean: 0.012769 max: 1.04618
deltaT = 0.00558462
Time = 9.94974s

smoothSolver:  Solving for alpha.water, Initial residual = 0.00484736, Final residual = 4.17736e-09, No Iterations 4
Phase-1 volume fraction = 0.0261492  Min(alpha.water) = -4.31875e-20  Max(alpha.water) = 0.999997
MULES: Correcting alpha.water
MULES: Correcting alpha.water
Phase-1 volume fraction = 0.0261492  Min(alpha.water) = -2.38779e-08  Max(alpha.water) = 0.999997
DICPCG:  Solving for p_rgh, Initial residual = 0.0389705, Final residual = 0.00170441, No Iterations 2
time step continuity errors : sum local = 8.66747e-05, global = -2.41531e-08, cumulative = -0.00156513
DICPCG:  Solving for p_rgh, Initial residual = 0.00265632, Final residual = 0.000122419, No Iterations 8
time step continuity errors : sum local = 6.221e-06, global = -8.30557e-09, cumulative = -0.00156514
DICPCG:  Solving for p_rgh, Initial residual = 0.000486621, Final residual = 9.35685e-08, No Iterations 167
time step continuity errors : sum local = 4.75365e-09, global = 1.59148e-10, cumulative = -0.00156514
ExecutionTime = 228.774 s  ClockTime = 229 s

Courant Number mean: 0.113237 max: 0.939916
Interface Courant Number mean: 0.0115082 max: 0.939916
deltaT = 0.00558462
Time = 9.95532s

smoothSolver:  Solving for alpha.water, Initial residual = 0.00481738, Final residual = 5.06443e-09, No Iterations 4
Phase-1 volume fraction = 0.0261492  Min(alpha.water) = -4.23569e-20  Max(alpha.water) = 0.999997
MULES: Correcting alpha.water
MULES: Correcting alpha.water
Phase-1 volume fraction = 0.0261492  Min(alpha.water) = -2.25217e-08  Max(alpha.water) = 0.999997
DICPCG:  Solving for p_rgh, Initial residual = 0.0385612, Final residual = 0.00159783, No Iterations 2
time step continuity errors : sum local = 8.09754e-05, global = -2.18343e-08, cumulative = -0.00156516
DICPCG:  Solving for p_rgh, Initial residual = 0.00245834, Final residual = 0.000117253, No Iterations 9
time step continuity errors : sum local = 5.94026e-06, global = -1.59498e-09, cumulative = -0.00156516
DICPCG:  Solving for p_rgh, Initial residual = 0.000492128, Final residual = 9.33743e-08, No Iterations 164
time step continuity errors : sum local = 4.72999e-09, global = -4.25169e-10, cumulative = -0.00156516
ExecutionTime = 228.873 s  ClockTime = 229 s

Courant Number mean: 0.113342 max: 0.955752
Interface Courant Number mean: 0.011552 max: 0.955752
deltaT = 0.00558462
Time = 9.96091s

smoothSolver:  Solving for alpha.water, Initial residual = 0.00479762, Final residual = 5.99242e-09, No Iterations 4
Phase-1 volume fraction = 0.0261492  Min(alpha.water) = -4.10597e-20  Max(alpha.water) = 0.999997
MULES: Correcting alpha.water
MULES: Correcting alpha.water
Phase-1 volume fraction = 0.0261492  Min(alpha.water) = -2.286e-08  Max(alpha.water) = 0.999997
DICPCG:  Solving for p_rgh, Initial residual = 0.0392908, Final residual = 0.00155162, No Iterations 2
time step continuity errors : sum local = 7.91713e-05, global = -2.57229e-08, cumulative = -0.00156519
DICPCG:  Solving for p_rgh, Initial residual = 0.00249613, Final residual = 0.000118117, No Iterations 7
time step continuity errors : sum local = 6.0349e-06, global = -7.09565e-09, cumulative = -0.0015652
DICPCG:  Solving for p_rgh, Initial residual = 0.000471112, Final residual = 9.96339e-08, No Iterations 166
time step continuity errors : sum local = 5.08985e-09, global = -1.51786e-10, cumulative = -0.0015652
ExecutionTime = 228.971 s  ClockTime = 229 s

Courant Number mean: 0.113417 max: 0.972542
Interface Courant Number mean: 0.0115191 max: 0.972542
deltaT = 0.00558462
Time = 9.96649s

smoothSolver:  Solving for alpha.water, Initial residual = 0.00477333, Final residual = 6.70145e-09, No Iterations 4
Phase-1 volume fraction = 0.0261492  Min(alpha.water) = -3.92786e-20  Max(alpha.water) = 0.999997
MULES: Correcting alpha.water
MULES: Correcting alpha.water
Phase-1 volume fraction = 0.0261492  Min(alpha.water) = -9.90428e-08  Max(alpha.water) = 0.999997
DICPCG:  Solving for p_rgh, Initial residual = 0.0394658, Final residual = 0.00143391, No Iterations 2
time step continuity errors : sum local = 7.33932e-05, global = -2.5168e-08, cumulative = -0.00156522
DICPCG:  Solving for p_rgh, Initial residual = 0.0023134, Final residual = 0.000105664, No Iterations 8
time step continuity errors : sum local = 5.41918e-06, global = -6.89979e-09, cumulative = -0.00156523
DICPCG:  Solving for p_rgh, Initial residual = 0.00044564, Final residual = 9.53635e-08, No Iterations 152
time step continuity errors : sum local = 4.89083e-09, global = -2.63703e-10, cumulative = -0.00156523
ExecutionTime = 229.067 s  ClockTime = 229 s

Courant Number mean: 0.113485 max: 1.01411
Interface Courant Number mean: 0.0115745 max: 1.01411
deltaT = 0.00478681
Time = 9.97128s

smoothSolver:  Solving for alpha.water, Initial residual = 0.00408214, Final residual = 3.08426e-09, No Iterations 4
Phase-1 volume fraction = 0.0261492  Min(alpha.water) = -3.74476e-20  Max(alpha.water) = 0.999997
MULES: Correcting alpha.water
MULES: Correcting alpha.water
Phase-1 volume fraction = 0.0261492  Min(alpha.water) = -9.52058e-08  Max(alpha.water) = 0.999997
DICPCG:  Solving for p_rgh, Initial residual = 0.0349689, Final residual = 0.00125274, No Iterations 2
time step continuity errors : sum local = 4.88556e-05, global = -1.60543e-08, cumulative = -0.00156524
DICPCG:  Solving for p_rgh, Initial residual = 0.00210719, Final residual = 9.28685e-05, No Iterations 7
time step continuity errors : sum local = 3.62385e-06, global = -5.17514e-09, cumulative = -0.00156525
DICPCG:  Solving for p_rgh, Initial residual = 0.000364655, Final residual = 9.46311e-08, No Iterations 157
time step continuity errors : sum local = 3.69261e-09, global = -7.12866e-11, cumulative = -0.00156525
ExecutionTime = 229.163 s  ClockTime = 229 s

Courant Number mean: 0.0973239 max: 0.880546
Interface Courant Number mean: 0.00984317 max: 0.880546
deltaT = 0.00478681
Time = 9.97607s

smoothSolver:  Solving for alpha.water, Initial residual = 0.00407386, Final residual = 3.0879e-09, No Iterations 4
Phase-1 volume fraction = 0.0261492  Min(alpha.water) = -3.52735e-20  Max(alpha.water) = 0.999997
MULES: Correcting alpha.water
MULES: Correcting alpha.water
Phase-1 volume fraction = 0.0261492  Min(alpha.water) = -1.29582e-07  Max(alpha.water) = 0.999997
DICPCG:  Solving for p_rgh, Initial residual = 0.0349041, Final residual = 0.00124865, No Iterations 2
time step continuity errors : sum local = 4.86537e-05, global = -1.30018e-08, cumulative = -0.00156526
DICPCG:  Solving for p_rgh, Initial residual = 0.00211237, Final residual = 0.00010216, No Iterations 7
time step continuity errors : sum local = 3.98601e-06, global = -3.22039e-09, cumulative = -0.00156527
DICPCG:  Solving for p_rgh, Initial residual = 0.000395518, Final residual = 9.51585e-08, No Iterations 156
time step continuity errors : sum local = 3.7128e-09, global = -3.55676e-11, cumulative = -0.00156527
ExecutionTime = 229.259 s  ClockTime = 229 s

Courant Number mean: 0.097372 max: 0.907183
Interface Courant Number mean: 0.00962932 max: 0.907183
deltaT = 0.00478681
Time = 9.98085s

smoothSolver:  Solving for alpha.water, Initial residual = 0.00407509, Final residual = 2.94654e-09, No Iterations 4
Phase-1 volume fraction = 0.0261492  Min(alpha.water) = -3.26979e-20  Max(alpha.water) = 0.999997
MULES: Correcting alpha.water
MULES: Correcting alpha.water
Phase-1 volume fraction = 0.0261492  Min(alpha.water) = -1.64251e-07  Max(alpha.water) = 0.999997
DICPCG:  Solving for p_rgh, Initial residual = 0.0336143, Final residual = 0.0014547, No Iterations 2
time step continuity errors : sum local = 5.74682e-05, global = -1.24314e-08, cumulative = -0.00156528
DICPCG:  Solving for p_rgh, Initial residual = 0.0023403, Final residual = 9.10531e-05, No Iterations 8
time step continuity errors : sum local = 3.59769e-06, global = -4.46079e-09, cumulative = -0.00156528
DICPCG:  Solving for p_rgh, Initial residual = 0.000414703, Final residual = 9.77691e-08, No Iterations 158
time step continuity errors : sum local = 3.86287e-09, global = -1.74115e-10, cumulative = -0.00156528
ExecutionTime = 229.356 s  ClockTime = 229 s

Courant Number mean: 0.0974147 max: 0.944896
Interface Courant Number mean: 0.0096728 max: 0.944896
deltaT = 0.00478681
Time = 9.98564s

smoothSolver:  Solving for alpha.water, Initial residual = 0.00406223, Final residual = 3.24366e-09, No Iterations 4
Phase-1 volume fraction = 0.0261492  Min(alpha.water) = -3.15075e-20  Max(alpha.water) = 0.999997
MULES: Correcting alpha.water
MULES: Correcting alpha.water
Phase-1 volume fraction = 0.0261492  Min(alpha.water) = -1.93103e-07  Max(alpha.water) = 0.999997
DICPCG:  Solving for p_rgh, Initial residual = 0.0349112, Final residual = 0.00150121, No Iterations 2
time step continuity errors : sum local = 5.94023e-05, global = -1.12563e-08, cumulative = -0.00156529
DICPCG:  Solving for p_rgh, Initial residual = 0.00244122, Final residual = 0.00011566, No Iterations 7
time step continuity errors : sum local = 4.578e-06, global = -4.10476e-09, cumulative = -0.0015653
DICPCG:  Solving for p_rgh, Initial residual = 0.000499317, Final residual = 9.99859e-08, No Iterations 150
time step continuity errors : sum local = 3.95779e-09, global = -1.52863e-10, cumulative = -0.0015653
ExecutionTime = 229.45 s  ClockTime = 229 s

Courant Number mean: 0.0974781 max: 0.933252
Interface Courant Number mean: 0.00972589 max: 0.933252
deltaT = 0.00478681
Time = 9.99043s

smoothSolver:  Solving for alpha.water, Initial residual = 0.00404918, Final residual = 3.21674e-09, No Iterations 4
Phase-1 volume fraction = 0.0261492  Min(alpha.water) = -3.10393e-20  Max(alpha.water) = 0.999997
MULES: Correcting alpha.water
MULES: Correcting alpha.water
Phase-1 volume fraction = 0.0261492  Min(alpha.water) = -5.19772e-09  Max(alpha.water) = 0.999997
DICPCG:  Solving for p_rgh, Initial residual = 0.0345644, Final residual = 0.00153472, No Iterations 2
time step continuity errors : sum local = 6.11296e-05, global = -1.06904e-08, cumulative = -0.00156531
DICPCG:  Solving for p_rgh, Initial residual = 0.00249011, Final residual = 0.000108342, No Iterations 7
time step continuity errors : sum local = 4.31563e-06, global = -2.86422e-09, cumulative = -0.00156531
DICPCG:  Solving for p_rgh, Initial residual = 0.00045752, Final residual = 9.32542e-08, No Iterations 150
time step continuity errors : sum local = 3.71465e-09, global = 2.19285e-11, cumulative = -0.00156531
ExecutionTime = 229.546 s  ClockTime = 229 s

Courant Number mean: 0.0975318 max: 1.00442
Interface Courant Number mean: 0.00974196 max: 1.00442
deltaT = 0.00478681
Time = 9.99521s

smoothSolver:  Solving for alpha.water, Initial residual = 0.00404499, Final residual = 3.27809e-09, No Iterations 4
Phase-1 volume fraction = 0.0261492  Min(alpha.water) = -3.0485e-20  Max(alpha.water) = 0.999997
MULES: Correcting alpha.water
MULES: Correcting alpha.water
Phase-1 volume fraction = 0.0261492  Min(alpha.water) = -5.21288e-09  Max(alpha.water) = 0.999997
DICPCG:  Solving for p_rgh, Initial residual = 0.0336755, Final residual = 0.00131482, No Iterations 2
time step continuity errors : sum local = 5.22242e-05, global = -1.14492e-08, cumulative = -0.00156532
DICPCG:  Solving for p_rgh, Initial residual = 0.00244269, Final residual = 0.000120927, No Iterations 8
time step continuity errors : sum local = 4.80515e-06, global = -3.89101e-09, cumulative = -0.00156533
DICPCG:  Solving for p_rgh, Initial residual = 0.00053234, Final residual = 9.51215e-08, No Iterations 166
time step continuity errors : sum local = 3.78018e-09, global = 2.40989e-10, cumulative = -0.00156533
ExecutionTime = 229.644 s  ClockTime = 230 s

Courant Number mean: 0.0976123 max: 0.952618
Interface Courant Number mean: 0.00971765 max: 0.952618
deltaT = 0.00478681
Time = 10s

smoothSolver:  Solving for alpha.water, Initial residual = 0.00404342, Final residual = 3.67027e-09, No Iterations 4
Phase-1 volume fraction = 0.0261492  Min(alpha.water) = -2.98669e-20  Max(alpha.water) = 0.999997
MULES: Correcting alpha.water
MULES: Correcting alpha.water
Phase-1 volume fraction = 0.0261492  Min(alpha.water) = -5.71258e-09  Max(alpha.water) = 0.999997
DICPCG:  Solving for p_rgh, Initial residual = 0.0330282, Final residual = 0.00147832, No Iterations 2
time step continuity errors : sum local = 5.88706e-05, global = -1.0759e-08, cumulative = -0.00156534
DICPCG:  Solving for p_rgh, Initial residual = 0.0025156, Final residual = 0.000116187, No Iterations 9
time step continuity errors : sum local = 4.6305e-06, global = 6.82572e-09, cumulative = -0.00156533
DICPCG:  Solving for p_rgh, Initial residual = 0.000480014, Final residual = 9.80494e-08, No Iterations 159
time step continuity errors : sum local = 3.90773e-09, global = -9.47952e-11, cumulative = -0.00156533
ExecutionTime = 229.826 s  ClockTime = 230 s

End

